@<TRIPOS>MOLECULE
*****
 53 60 0 0 0
SMALL
GASTEIGER

@<TRIPOS>ATOM
      1 C         141.6296  141.9205  164.9335 C.3     1  UNL1        0.0236
      2 C         141.6613  141.0357  163.7227 C.3     1  UNL1        0.0257
      3 C         141.7222  141.6421  162.3520 C.3     1  UNL1        0.0940
      4 N         141.7514  143.1333  162.1922 N.am    1  UNL1       -0.2760
      5 C         141.8122  143.7397  160.8216 C.2     1  UNL1        0.2499
      6 O         141.8414  145.2308  160.6618 O.2     1  UNL1       -0.2699
      7 C         141.7197  144.0181  163.4031 C.3     1  UNL1        0.0940
      8 C         141.6588  143.4118  164.7737 C.3     1  UNL1        0.0257
      9 C         141.8439  142.8548  159.6108 C.ar    1  UNL1        0.0656
     10 C         143.1570  142.4780  158.9913 C.ar    1  UNL1        0.0276
     11 C         143.1886  141.5932  157.7805 C.ar    1  UNL1        0.1494
     12 C         141.9071  141.0851  157.1892 C.ar    1  UNL1        0.1594
     13 F         141.9387  140.2002  155.9785 F       1  UNL1       -0.2027
     14 C         140.5940  141.4618  157.8088 C.ar    1  UNL1        0.0426
     15 C         140.5624  142.3467  159.0196 C.ar    1  UNL1        0.0643
     16 CL        139.2493  142.7235  159.6391 Cl      1  UNL1       -0.0820
     17 S         144.5017  141.2164  157.1610 S.O2    1  UNL1        0.0623
     18 O         144.5222  142.5168  156.4137 O.2     1  UNL1       -0.1529
     19 O         144.4811  139.9160  157.9083 O.2     1  UNL1       -0.1529
     20 N         145.8148  140.8397  156.5414 N.3     1  UNL1       -0.1807
     21 H         146.0837  139.9420  156.9442 H       1  UNL1        0.1487
     22 C         145.9282  140.6975  155.0525 C.3     1  UNL1        0.0755
     23 C         145.1126  139.7809  154.1896 C.3     1  UNL1        0.0174
     24 C         145.5574  139.9639  152.7689 C.3     1  UNL1        0.0015
     25 C         146.6479  140.9937  152.7537 C.3     1  UNL1        0.0015
     26 C         146.8771  141.4471  154.1649 C.3     1  UNL1        0.0174
     27 C         141.5820  142.3378  166.3736 C.ar    1  UNL1       -0.0204
     28 C         140.3251  142.9261  166.9428 C.ar    1  UNL1       -0.0041
     29 C         140.2776  143.3434  168.3829 C.ar    1  UNL1        0.0020
     30 C         141.4870  143.1724  169.2535 C.ar    1  UNL1        0.0296
     31 C         142.7440  142.5841  168.6842 C.ar    1  UNL1        0.1398
     32 F         143.9533  142.4132  169.5549 F       1  UNL1       -0.2042
     33 C         142.7914  142.1669  167.2442 C.ar    1  UNL1        0.0254
     34 C         141.5839  140.5743  165.5934 C.3     1  UNL1        0.0215
     35 C         140.3676  139.7085  165.4478 C.3     1  UNL1        0.0723
     36 C         140.3101  139.6761  165.3054 C.3     1  UNL1        0.0893
     37 C         139.2991  140.7559  165.5545 C.3     1  UNL1        0.0386
     38 C         138.2711  141.0762  164.5102 C.3     1  UNL1        0.0594
     39 C         137.4707  141.0527  163.2418 C.3     1  UNL1        0.0174
     40 C         138.0445  139.9908  162.3512 C.3     1  UNL1        0.0174
     41 C         139.1996  139.3580  163.0692 C.3     1  UNL1        0.0594
     42 C         140.2930  138.9167  164.0120 C.3     1  UNL1        0.0386
     43 N         139.3396  140.0288  164.4036 N.3     1  UNL1       -0.2751
     44 C         142.9881  138.6419  164.6311 C.3     1  UNL1        0.0718
     45 C         142.7189  138.8280  166.0950 C.ar    1  UNL1        0.1207
     46 N         143.3999  138.6531  167.4200 N.ar    1  UNL1       -0.2309
     47 C         142.4401  139.0728  168.4936 C.ar    1  UNL1        0.0983
     48 C         142.5618  139.1156  169.9880 C.ar    1  UNL1        0.0206
     49 C         141.4091  139.5927  170.8209 C.ar    1  UNL1        0.0016
     50 C         140.1348  140.0269  170.1594 C.ar    1  UNL1        0.0016
     51 C         140.0132  139.9842  168.6650 C.ar    1  UNL1        0.0188
     52 C         141.1658  139.5071  167.8321 C.ar    1  UNL1        0.0785
     53 N         141.3381  139.3558  166.3497 N.ar    1  UNL1       -0.3167
@<TRIPOS>BOND
     1    44    45    1
     2    45    46   ar
     3    46    47   ar
     4    47    48   ar
     5    48    49   ar
     6    49    50   ar
     7    50    51   ar
     8    51    52   ar
     9    52    53   ar
    10    53    36    1
    11    36    37    1
    12    37    38    1
    13    38    39    1
    14    39    40    1
    15    40    41    1
    16    41    42    1
    17    41    43    1
    18    43    35    1
    19    35    34    1
    20    34     1    1
    21     1    27    1
    22    27    28   ar
    23    28    29   ar
    24    29    30   ar
    25    30    31   ar
    26    31    32    1
    27    31    33   ar
    28     1     2    1
    29     2     3    1
    30     3     4    1
    31     4     5   am
    32     5     6    2
    33     5     9    1
    34     9    10   ar
    35    10    11   ar
    36    11    17    1
    37    17    18    2
    38    17    19    2
    39    17    20    1
    40    20    22    1
    41    22    23    1
    42    23    24    1
    43    24    25    1
    44    25    26    1
    45    11    12   ar
    46    12    13    1
    47    12    14   ar
    48    14    15   ar
    49    15    16    1
    50     4     7    1
    51     7     8    1
    52    53    45   ar
    53    42    36    1
    54     8     1    1
    55    52    47   ar
    56    43    38    1
    57    33    27   ar
    58    15     9   ar
    59    26    22    1
    60    20    21    1
@<TRIPOS>MOLECULE
*****
 53 60 0 0 0
SMALL
GASTEIGER

@<TRIPOS>ATOM
      1 C         139.9246  140.1575  162.2877 C.3     1  UNL1        0.0236
      2 C         140.6029  141.2823  161.5633 C.3     1  UNL1        0.0257
      3 C         140.3710  141.4760  160.0940 C.3     1  UNL1        0.0940
      4 N         139.4609  140.5450  159.3491 N.am    1  UNL1       -0.2760
      5 C         139.2291  140.7388  157.8799 C.2     1  UNL1        0.2499
      6 O         138.3190  139.8077  157.1350 O.2     1  UNL1       -0.2699
      7 C         138.7827  139.4202  160.0735 C.3     1  UNL1        0.0940
      8 C         139.0145  139.2264  161.5427 C.3     1  UNL1        0.0257
      9 C         139.9073  141.8636  157.1556 C.ar    1  UNL1        0.0656
     10 C         139.1853  143.1607  156.9405 C.ar    1  UNL1        0.0276
     11 C         139.8637  144.2855  156.2162 C.ar    1  UNL1        0.1494
     12 C         141.2641  144.1132  155.7069 C.ar    1  UNL1        0.1594
     13 F         141.9423  145.2380  154.9826 F       1  UNL1       -0.2027
     14 C         141.9861  142.8161  155.9219 C.ar    1  UNL1        0.0426
     15 C         141.3077  141.6913  156.6463 C.ar    1  UNL1        0.0643
     16 CL        142.0297  140.3942  156.8613 Cl      1  UNL1       -0.0820
     17 S         139.1417  145.5826  156.0011 S.O2    1  UNL1        0.0623
     18 O         139.8958  146.1921  157.1455 O.2     1  UNL1       -0.1529
     19 O         138.3876  144.9731  154.8567 O.2     1  UNL1       -0.1529
     20 N         138.4197  146.8798  155.7861 N.3     1  UNL1       -0.1807
     21 H         138.1565  147.2267  156.7084 H       1  UNL1        0.1487
     22 C         139.1044  148.0106  155.0773 C.3     1  UNL1        0.0755
     23 C         140.1650  147.8783  154.0249 C.3     1  UNL1        0.0174
     24 C         140.5649  149.2582  153.5937 C.3     1  UNL1        0.0015
     25 C         139.7513  150.2433  154.3797 C.3     1  UNL1        0.0015
     26 C         138.8488  149.4723  155.2966 C.3     1  UNL1        0.0174
     27 C         139.5127  139.2460  163.4056 C.ar    1  UNL1       -0.0204
     28 C         139.9806  137.8210  163.4225 C.ar    1  UNL1       -0.0041
     29 C         139.5687  136.9095  164.5404 C.ar    1  UNL1        0.0020
     30 C         138.6889  137.4232  165.6413 C.ar    1  UNL1        0.0296
     31 C         138.2210  138.8483  165.6244 C.ar    1  UNL1        0.1398
     32 F         137.3413  139.3619  166.7254 F       1  UNL1       -0.2042
     33 C         138.6330  139.7597  164.5065 C.ar    1  UNL1        0.0254
     34 C         140.6917  140.7719  163.4207 C.3     1  UNL1        0.0215
     35 C         142.1806  140.6057  163.4959 C.3     1  UNL1        0.0723
     36 C         142.2666  140.6302  163.3669 C.3     1  UNL1        0.0893
     37 C         142.3265  139.1385  163.2201 C.3     1  UNL1        0.0386
     38 C         143.0719  138.5273  162.0709 C.3     1  UNL1        0.0594
     39 C         143.8925  138.3691  160.8252 C.3     1  UNL1        0.0174
     40 C         144.2537  139.7386  160.3312 C.3     1  UNL1        0.0174
     41 C         143.6564  140.7431  161.2715 C.3     1  UNL1        0.0594
     42 C         142.9521  141.5104  162.3644 C.3     1  UNL1        0.0386
     43 N         142.9260  139.9945  162.3467 N.3     1  UNL1       -0.2751
     44 C         142.1611  139.3789  166.0350 C.3     1  UNL1        0.0718
     45 C         141.4165  140.6741  165.9008 C.ar    1  UNL1        0.1207
     46 N         140.5802  141.6093  166.7228 N.ar    1  UNL1       -0.2309
     47 C         140.1679  142.7547  165.8463 C.ar    1  UNL1        0.0983
     48 C         139.3382  143.9752  166.1138 C.ar    1  UNL1        0.0206
     49 C         139.0899  144.9684  165.0175 C.ar    1  UNL1        0.0016
     50 C         139.6715  144.7410  163.6537 C.ar    1  UNL1        0.0016
     51 C         140.5013  143.5204  163.3861 C.ar    1  UNL1        0.0188
     52 C         140.7495  142.5273  164.4825 C.ar    1  UNL1        0.0785
     53 N         141.5212  141.2414  164.5161 N.ar    1  UNL1       -0.3167
@<TRIPOS>BOND
     1    44    45    1
     2    45    46   ar
     3    46    47   ar
     4    47    48   ar
     5    48    49   ar
     6    49    50   ar
     7    50    51   ar
     8    51    52   ar
     9    52    53   ar
    10    53    36    1
    11    36    37    1
    12    37    38    1
    13    38    39    1
    14    39    40    1
    15    40    41    1
    16    41    42    1
    17    41    43    1
    18    43    35    1
    19    35    34    1
    20    34     1    1
    21     1    27    1
    22    27    28   ar
    23    28    29   ar
    24    29    30   ar
    25    30    31   ar
    26    31    32    1
    27    31    33   ar
    28     1     2    1
    29     2     3    1
    30     3     4    1
    31     4     5   am
    32     5     6    2
    33     5     9    1
    34     9    10   ar
    35    10    11   ar
    36    11    17    1
    37    17    18    2
    38    17    19    2
    39    17    20    1
    40    20    22    1
    41    22    23    1
    42    23    24    1
    43    24    25    1
    44    25    26    1
    45    11    12   ar
    46    12    13    1
    47    12    14   ar
    48    14    15   ar
    49    15    16    1
    50     4     7    1
    51     7     8    1
    52    53    45   ar
    53    42    36    1
    54     8     1    1
    55    52    47   ar
    56    43    38    1
    57    33    27   ar
    58    15     9   ar
    59    26    22    1
    60    20    21    1
@<TRIPOS>MOLECULE
*****
 53 60 0 0 0
SMALL
GASTEIGER

@<TRIPOS>ATOM
      1 C         140.8085  141.5687  160.3105 C.3     1  UNL1        0.0236
      2 C         140.4791  140.1323  160.0309 C.3     1  UNL1        0.0257
      3 C         140.9790  139.4786  158.7768 C.3     1  UNL1        0.0940
      4 N         141.8083  140.2612  157.8023 N.am    1  UNL1       -0.2760
      5 C         142.3082  139.6075  156.5482 C.2     1  UNL1        0.2499
      6 O         143.1375  140.3902  155.5737 O.2     1  UNL1       -0.2699
      7 C         142.1377  141.6977  158.0819 C.3     1  UNL1        0.0940
      8 C         141.6379  142.3514  159.3359 C.3     1  UNL1        0.0257
      9 C         141.9787  138.1711  156.2687 C.ar    1  UNL1        0.0656
     10 C         142.9678  137.0952  156.6064 C.ar    1  UNL1        0.0276
     11 C         142.6383  135.6588  156.3268 C.ar    1  UNL1        0.1494
     12 C         141.3195  135.2983  155.7095 C.ar    1  UNL1        0.1594
     13 F         140.9900  133.8619  155.4300 F       1  UNL1       -0.2027
     14 C         140.3304  136.3742  155.3718 C.ar    1  UNL1        0.0426
     15 C         140.6600  137.8106  155.6514 C.ar    1  UNL1        0.0643
     16 CL        139.6708  138.8864  155.3137 Cl      1  UNL1       -0.0820
     17 S         143.6274  134.5829  156.6646 S.O2    1  UNL1        0.0623
     18 O         143.2473  134.6877  158.1118 O.2     1  UNL1       -0.1529
     19 O         144.0076  134.4781  155.2173 O.2     1  UNL1       -0.1529
     20 N         144.6166  133.5070  157.0024 N.3     1  UNL1       -0.1807
     21 H         145.0254  133.7552  157.9033 H       1  UNL1        0.1487
     22 C         144.1655  132.0805  157.1098 C.3     1  UNL1        0.0755
     23 C         144.8297  131.0041  157.9161 C.3     1  UNL1        0.0174
     24 C         144.0458  129.7382  157.7344 C.3     1  UNL1        0.0015
     25 C         142.8970  130.0324  156.8158 C.3     1  UNL1        0.0015
     26 C         142.9710  131.4799  156.4297 C.3     1  UNL1        0.0174
     27 C         140.8557  142.8931  161.0133 C.ar    1  UNL1       -0.0204
     28 C         139.6344  143.7629  161.0569 C.ar    1  UNL1       -0.0041
     29 C         139.6816  145.0873  161.7597 C.ar    1  UNL1        0.0020
     30 C         140.9500  145.5418  162.4188 C.ar    1  UNL1        0.0296
     31 C         142.1713  144.6719  162.3752 C.ar    1  UNL1        0.1398
     32 F         143.4397  145.1265  163.0343 F       1  UNL1       -0.2042
     33 C         142.1240  143.3476  161.6724 C.ar    1  UNL1        0.0254
     34 C         139.9956  141.2460  161.5290 C.3     1  UNL1        0.0215
     35 C         140.5196  140.2743  162.5446 C.3     1  UNL1        0.0723
     36 C         140.5797  140.1360  162.5010 C.3     1  UNL1        0.0893
     37 C         141.9315  140.7742  162.6260 C.3     1  UNL1        0.0386
     38 C         143.1675  139.9765  162.3328 C.3     1  UNL1        0.0594
     39 C         144.0813  138.8478  161.9571 C.3     1  UNL1        0.0174
     40 C         143.2341  137.6504  161.6435 C.3     1  UNL1        0.0174
     41 C         141.7967  138.0389  161.8254 C.3     1  UNL1        0.0594
     42 C         140.4641  138.7002  162.0828 C.3     1  UNL1        0.0386
     43 N         141.7556  139.4766  162.2514 N.3     1  UNL1       -0.2751
     44 C         137.9838  139.5670  161.2231 C.3     1  UNL1        0.0718
     45 C         137.9882  140.7128  162.1912 C.ar    1  UNL1        0.1207
     46 N         137.0530  141.7349  162.7662 N.ar    1  UNL1       -0.2309
     47 C         137.8306  142.5876  163.7245 C.ar    1  UNL1        0.0983
     48 C         137.4324  143.7509  164.5836 C.ar    1  UNL1        0.0206
     49 C         138.4500  144.4190  165.4600 C.ar    1  UNL1        0.0016
     50 C         139.8658  143.9238  165.4773 C.ar    1  UNL1        0.0016
     51 C         140.2640  142.7605  164.6182 C.ar    1  UNL1        0.0188
     52 C         139.2464  142.0924  163.7418 C.ar    1  UNL1        0.0785
     53 N         139.3437  140.9337  162.7941 N.ar    1  UNL1       -0.3167
@<TRIPOS>BOND
     1    44    45    1
     2    45    46   ar
     3    46    47   ar
     4    47    48   ar
     5    48    49   ar
     6    49    50   ar
     7    50    51   ar
     8    51    52   ar
     9    52    53   ar
    10    53    36    1
    11    36    37    1
    12    37    38    1
    13    38    39    1
    14    39    40    1
    15    40    41    1
    16    41    42    1
    17    41    43    1
    18    43    35    1
    19    35    34    1
    20    34     1    1
    21     1    27    1
    22    27    28   ar
    23    28    29   ar
    24    29    30   ar
    25    30    31   ar
    26    31    32    1
    27    31    33   ar
    28     1     2    1
    29     2     3    1
    30     3     4    1
    31     4     5   am
    32     5     6    2
    33     5     9    1
    34     9    10   ar
    35    10    11   ar
    36    11    17    1
    37    17    18    2
    38    17    19    2
    39    17    20    1
    40    20    22    1
    41    22    23    1
    42    23    24    1
    43    24    25    1
    44    25    26    1
    45    11    12   ar
    46    12    13    1
    47    12    14   ar
    48    14    15   ar
    49    15    16    1
    50     4     7    1
    51     7     8    1
    52    53    45   ar
    53    42    36    1
    54     8     1    1
    55    52    47   ar
    56    43    38    1
    57    33    27   ar
    58    15     9   ar
    59    26    22    1
    60    20    21    1
@<TRIPOS>MOLECULE
*****
 53 60 0 0 0
SMALL
GASTEIGER

@<TRIPOS>ATOM
      1 C         141.3812  141.9699  164.9631 C.3     1  UNL1        0.0236
      2 C         141.2448  141.1140  163.7388 C.3     1  UNL1        0.0257
      3 C         141.1393  141.7521  162.3854 C.3     1  UNL1        0.0940
      4 N         141.1701  143.2462  162.2563 N.am    1  UNL1       -0.2760
      5 C         141.0646  143.8844  160.9029 C.2     1  UNL1        0.2499
      6 O         141.0954  145.3785  160.7737 O.2     1  UNL1       -0.2699
      7 C         141.3065  144.1022  163.4805 C.3     1  UNL1        0.0940
      8 C         141.4120  143.4641  164.8338 C.3     1  UNL1        0.0257
      9 C         140.9283  143.0284  159.6787 C.ar    1  UNL1        0.0656
     10 C         139.5790  142.5200  159.2654 C.ar    1  UNL1        0.0276
     11 C         139.4428  141.6640  158.0412 C.ar    1  UNL1        0.1494
     12 C         140.6559  141.3163  157.2303 C.ar    1  UNL1        0.1594
     13 F         140.5196  140.4603  156.0061 F       1  UNL1       -0.2027
     14 C         142.0052  141.8246  157.6436 C.ar    1  UNL1        0.0426
     15 C         142.1414  142.6807  158.8678 C.ar    1  UNL1        0.0643
     16 CL        143.4908  143.1890  159.2812 Cl      1  UNL1       -0.0820
     17 S         138.0934  141.1556  157.6278 S.O2    1  UNL1        0.0623
     18 O         137.7652  142.4991  157.0470 O.2     1  UNL1       -0.1529
     19 O         138.4216  139.8122  158.2087 O.2     1  UNL1       -0.1529
     20 N         136.7440  140.6473  157.2144 N.3     1  UNL1       -0.1807
     21 H         136.0534  141.2669  157.6383 H       1  UNL1        0.1487
     22 C         136.3959  140.5419  155.7592 C.3     1  UNL1        0.0755
     23 C         135.1467  141.0616  155.1115 C.3     1  UNL1        0.0174
     24 C         135.2146  140.7391  153.6482 C.3     1  UNL1        0.0015
     25 C         136.5057  140.0200  153.3916 C.3     1  UNL1        0.0015
     26 C         137.2358  139.8981  154.6962 C.3     1  UNL1        0.0174
     27 C         141.5240  142.3533  166.4063 C.ar    1  UNL1       -0.0204
     28 C         140.3467  142.9018  167.1566 C.ar    1  UNL1       -0.0041
     29 C         140.4896  143.2851  168.5998 C.ar    1  UNL1        0.0020
     30 C         141.8098  143.1200  169.2925 C.ar    1  UNL1        0.0296
     31 C         142.9871  142.5716  168.5420 C.ar    1  UNL1        0.1398
     32 F         144.3072  142.4065  169.2347 F       1  UNL1       -0.2042
     33 C         142.8442  142.1882  167.0989 C.ar    1  UNL1        0.0254
     34 C         141.4000  140.6090  165.5934 C.3     1  UNL1        0.0215
     35 C         140.2003  139.7152  165.4842 C.3     1  UNL1        0.0723
     36 C         140.1381  139.6764  165.3454 C.3     1  UNL1        0.0893
     37 C         139.1499  140.7828  165.5684 C.3     1  UNL1        0.0386
     38 C         138.0954  141.0651  164.5397 C.3     1  UNL1        0.0594
     39 C         137.2569  140.9893  163.2982 C.3     1  UNL1        0.0174
     40 C         137.7890  139.8748  162.4468 C.3     1  UNL1        0.0174
     41 C         138.9564  139.2619  163.1620 C.3     1  UNL1        0.0594
     42 C         140.0716  138.8526  164.0937 C.3     1  UNL1        0.0386
     43 N         139.1458  139.9975  164.4556 N.3     1  UNL1       -0.2751
     44 C         142.8321  138.7120  164.6327 C.3     1  UNL1        0.0718
     45 C         142.5831  138.9030  166.0995 C.ar    1  UNL1        0.1207
     46 N         143.2916  138.7587  167.4137 N.ar    1  UNL1       -0.2309
     47 C         142.3391  139.1605  168.5005 C.ar    1  UNL1        0.0983
     48 C         142.4853  139.2195  169.9922 C.ar    1  UNL1        0.0206
     49 C         141.3343  139.6712  170.8413 C.ar    1  UNL1        0.0016
     50 C         140.0370  140.0639  170.1987 C.ar    1  UNL1        0.0016
     51 C         139.8907  140.0049  168.7071 C.ar    1  UNL1        0.0188
     52 C         141.0418  139.5532  167.8580 C.ar    1  UNL1        0.0785
     53 N         141.1926  139.3941  166.3741 N.ar    1  UNL1       -0.3167
@<TRIPOS>BOND
     1    44    45    1
     2    45    46   ar
     3    46    47   ar
     4    47    48   ar
     5    48    49   ar
     6    49    50   ar
     7    50    51   ar
     8    51    52   ar
     9    52    53   ar
    10    53    36    1
    11    36    37    1
    12    37    38    1
    13    38    39    1
    14    39    40    1
    15    40    41    1
    16    41    42    1
    17    41    43    1
    18    43    35    1
    19    35    34    1
    20    34     1    1
    21     1    27    1
    22    27    28   ar
    23    28    29   ar
    24    29    30   ar
    25    30    31   ar
    26    31    32    1
    27    31    33   ar
    28     1     2    1
    29     2     3    1
    30     3     4    1
    31     4     5   am
    32     5     6    2
    33     5     9    1
    34     9    10   ar
    35    10    11   ar
    36    11    17    1
    37    17    18    2
    38    17    19    2
    39    17    20    1
    40    20    22    1
    41    22    23    1
    42    23    24    1
    43    24    25    1
    44    25    26    1
    45    11    12   ar
    46    12    13    1
    47    12    14   ar
    48    14    15   ar
    49    15    16    1
    50     4     7    1
    51     7     8    1
    52    53    45   ar
    53    42    36    1
    54     8     1    1
    55    52    47   ar
    56    43    38    1
    57    33    27   ar
    58    15     9   ar
    59    26    22    1
    60    20    21    1
@<TRIPOS>MOLECULE
*****
 53 60 0 0 0
SMALL
GASTEIGER

@<TRIPOS>ATOM
      1 C         140.3915  140.2383  161.6135 C.3     1  UNL1        0.0236
      2 C         141.0552  141.2422  160.7181 C.3     1  UNL1        0.0257
      3 C         140.4468  141.5798  159.3892 C.3     1  UNL1        0.0940
      4 N         139.1746  140.9137  158.9558 N.am    1  UNL1       -0.2760
      5 C         138.5662  141.2514  157.6269 C.2     1  UNL1        0.2499
      6 O         137.2940  140.5853  157.1935 O.2     1  UNL1       -0.2699
      7 C         138.5109  139.9099  159.8512 C.3     1  UNL1        0.0940
      8 C         139.1192  139.5722  161.1800 C.3     1  UNL1        0.0257
      9 C         139.2300  142.2552  156.7316 C.ar    1  UNL1        0.0656
     10 C         138.7905  143.6891  156.7568 C.ar    1  UNL1        0.0276
     11 C         139.4543  144.6929  155.8614 C.ar    1  UNL1        0.1494
     12 C         140.5577  144.2628  154.9408 C.ar    1  UNL1        0.1594
     13 F         141.2215  145.2666  154.0454 F       1  UNL1       -0.2027
     14 C         140.9973  142.8288  154.9156 C.ar    1  UNL1        0.0426
     15 C         140.3334  141.8251  155.8110 C.ar    1  UNL1        0.0643
     16 CL        140.7729  140.3911  155.7858 Cl      1  UNL1       -0.0820
     17 S         139.0148  146.1268  155.8866 S.O2    1  UNL1        0.0623
     18 O         140.1723  146.4660  156.7783 O.2     1  UNL1       -0.1529
     19 O         137.8573  145.7877  154.9949 O.2     1  UNL1       -0.1529
     20 N         138.5753  147.5609  155.9119 N.3     1  UNL1       -0.1807
     21 H         138.7428  147.9036  156.8578 H       1  UNL1        0.1487
     22 C         139.1986  148.5529  154.9751 C.3     1  UNL1        0.0755
     23 C         139.1022  150.0460  155.0804 C.3     1  UNL1        0.0174
     24 C         139.8717  150.6419  153.9390 C.3     1  UNL1        0.0015
     25 C         140.4437  149.5168  153.1283 C.3     1  UNL1        0.0015
     26 C         140.0277  148.2258  153.7686 C.3     1  UNL1        0.0174
     27 C         140.1390  139.3598  162.8029 C.ar    1  UNL1       -0.0204
     28 C         140.9826  138.1399  163.0268 C.ar    1  UNL1       -0.0041
     29 C         140.7301  137.2614  164.2162 C.ar    1  UNL1        0.0020
     30 C         139.6341  137.6030  165.1817 C.ar    1  UNL1        0.0296
     31 C         138.7906  138.8230  164.9578 C.ar    1  UNL1        0.1398
     32 F         137.6947  139.1645  165.9232 F       1  UNL1       -0.2042
     33 C         139.0431  139.7014  163.7683 C.ar    1  UNL1        0.0254
     34 C         141.5759  140.5994  162.4600 C.3     1  UNL1        0.0215
     35 C         141.6746  141.9674  163.0674 C.3     1  UNL1        0.0723
     36 C         141.6483  142.0960  162.9814 C.3     1  UNL1        0.0893
     37 C         140.2640  142.1019  163.5594 C.3     1  UNL1        0.0386
     38 C         139.2899  143.1711  163.1620 C.3     1  UNL1        0.0594
     39 C         138.6836  144.3767  162.5070 C.3     1  UNL1        0.0174
     40 C         139.7195  144.9871  161.6102 C.3     1  UNL1        0.0174
     41 C         140.9661  144.1589  161.7110 C.3     1  UNL1        0.0594
     42 C         142.0582  143.1593  162.0062 C.3     1  UNL1        0.0386
     43 N         140.7006  143.0365  162.6701 N.3     1  UNL1       -0.2751
     44 C         143.7613  141.1217  161.1699 C.3     1  UNL1        0.0718
     45 C         143.7235  140.4748  162.5227 C.ar    1  UNL1        0.1207
     46 N         144.4479  139.4287  163.3169 N.ar    1  UNL1       -0.2309
     47 C         143.7946  139.3341  164.6638 C.ar    1  UNL1        0.0983
     48 C         144.0813  138.4762  165.8604 C.ar    1  UNL1        0.0206
     49 C         143.2397  138.6060  167.0952 C.ar    1  UNL1        0.0016
     50 C         142.1114  139.5937  167.1335 C.ar    1  UNL1        0.0016
     51 C         141.8247  140.4515  165.9369 C.ar    1  UNL1        0.0188
     52 C         142.6663  140.3218  164.7021 C.ar    1  UNL1        0.0785
     53 N         142.6223  141.0268  163.3788 N.ar    1  UNL1       -0.3167
@<TRIPOS>BOND
     1    44    45    1
     2    45    46   ar
     3    46    47   ar
     4    47    48   ar
     5    48    49   ar
     6    49    50   ar
     7    50    51   ar
     8    51    52   ar
     9    52    53   ar
    10    53    36    1
    11    36    37    1
    12    37    38    1
    13    38    39    1
    14    39    40    1
    15    40    41    1
    16    41    42    1
    17    41    43    1
    18    43    35    1
    19    35    34    1
    20    34     1    1
    21     1    27    1
    22    27    28   ar
    23    28    29   ar
    24    29    30   ar
    25    30    31   ar
    26    31    32    1
    27    31    33   ar
    28     1     2    1
    29     2     3    1
    30     3     4    1
    31     4     5   am
    32     5     6    2
    33     5     9    1
    34     9    10   ar
    35    10    11   ar
    36    11    17    1
    37    17    18    2
    38    17    19    2
    39    17    20    1
    40    20    22    1
    41    22    23    1
    42    23    24    1
    43    24    25    1
    44    25    26    1
    45    11    12   ar
    46    12    13    1
    47    12    14   ar
    48    14    15   ar
    49    15    16    1
    50     4     7    1
    51     7     8    1
    52    53    45   ar
    53    42    36    1
    54     8     1    1
    55    52    47   ar
    56    43    38    1
    57    33    27   ar
    58    15     9   ar
    59    26    22    1
    60    20    21    1
@<TRIPOS>MOLECULE
*****
 53 60 0 0 0
SMALL
GASTEIGER

@<TRIPOS>ATOM
      1 C         142.2115  141.5350  161.7949 C.3     1  UNL1        0.0236
      2 C         141.2329  141.1187  160.7371 C.3     1  UNL1        0.0257
      3 C         141.7216  140.7408  159.3702 C.3     1  UNL1        0.0940
      4 N         143.1889  140.7793  159.0611 N.am    1  UNL1       -0.2760
      5 C         143.6777  140.4014  157.6942 C.2     1  UNL1        0.2499
      6 O         145.1450  140.4399  157.3852 O.2     1  UNL1       -0.2699
      7 C         144.1675  141.1956  160.1190 C.3     1  UNL1        0.0940
      8 C         143.6788  141.5735  161.4858 C.3     1  UNL1        0.0257
      9 C         142.6990  139.9851  156.6365 C.ar    1  UNL1        0.0656
     10 C         142.4518  138.5289  156.3747 C.ar    1  UNL1        0.0276
     11 C         141.4731  138.1127  155.3169 C.ar    1  UNL1        0.1494
     12 C         140.7417  139.1525  154.5208 C.ar    1  UNL1        0.1594
     13 F         139.7631  138.7362  153.4630 F       1  UNL1       -0.2027
     14 C         140.9890  140.6087  154.7825 C.ar    1  UNL1        0.0426
     15 C         141.9677  141.0249  155.8403 C.ar    1  UNL1        0.0643
     16 CL        142.2149  142.4811  156.1021 Cl      1  UNL1       -0.0820
     17 S         141.2258  136.6565  155.0552 S.O2    1  UNL1        0.0623
     18 O         140.0812  136.6767  156.0245 O.2     1  UNL1       -0.1529
     19 O         142.3704  136.6364  154.0860 O.2     1  UNL1       -0.1529
     20 N         140.9785  135.2003  154.7936 N.3     1  UNL1       -0.1807
     21 H         141.1679  135.0427  153.8038 H       1  UNL1        0.1487
     22 C         141.7484  134.1606  155.5527 C.3     1  UNL1        0.0755
     23 C         141.6332  132.6754  155.3775 C.3     1  UNL1        0.0174
     24 C         142.5822  132.0204  156.3368 C.3     1  UNL1        0.0015
     25 C         143.2839  133.1010  157.1049 C.3     1  UNL1        0.0015
     26 C         142.7686  134.4237  156.6203 C.3     1  UNL1        0.0174
     27 C         142.7448  141.9933  163.1199 C.ar    1  UNL1       -0.0204
     28 C         142.7711  141.0490  164.2850 C.ar    1  UNL1       -0.0041
     29 C         143.3045  141.5073  165.6100 C.ar    1  UNL1        0.0020
     30 C         143.8116  142.9099  165.7698 C.ar    1  UNL1        0.0296
     31 C         143.7853  143.8543  164.6046 C.ar    1  UNL1        0.1398
     32 F         144.2923  145.2568  164.7644 F       1  UNL1       -0.2042
     33 C         143.2519  143.3959  163.2797 C.ar    1  UNL1        0.0254
     34 C         140.9294  141.6557  162.5641 C.3     1  UNL1        0.0215
     35 C         139.9540  142.7452  162.2300 C.3     1  UNL1        0.0723
     36 C         139.9119  142.7690  162.0807 C.3     1  UNL1        0.0893
     37 C         140.8908  143.9055  162.0686 C.3     1  UNL1        0.0386
     38 C         141.0761  144.7226  160.8244 C.3     1  UNL1        0.0594
     39 C         140.9362  145.2399  159.4234 C.3     1  UNL1        0.0174
     40 C         139.9128  144.3993  158.7190 C.3     1  UNL1        0.0174
     41 C         139.4203  143.3625  159.6846 C.3     1  UNL1        0.0594
     42 C         139.1184  142.4496  160.8485 C.3     1  UNL1        0.0386
     43 N         140.1393  143.5622  160.9859 N.3     1  UNL1       -0.2751
     44 C         140.0453  143.9411  164.7832 C.3     1  UNL1        0.0718
     45 C         139.7785  142.4659  164.7331 C.ar    1  UNL1        0.1207
     46 N         139.5408  141.3091  165.6578 N.ar    1  UNL1       -0.2309
     47 C         139.3420  140.0800  164.8211 C.ar    1  UNL1        0.0983
     48 C         139.0712  138.6505  165.1859 C.ar    1  UNL1        0.0206
     49 C         138.9153  137.6183  164.1088 C.ar    1  UNL1        0.0016
     50 C         139.0301  138.0156  162.6670 C.ar    1  UNL1        0.0016
     51 C         139.3009  139.4451  162.3022 C.ar    1  UNL1        0.0188
     52 C         139.4568  140.4774  163.3793 C.ar    1  UNL1        0.0785
     53 N         139.7266  141.9519  163.3249 N.ar    1  UNL1       -0.3167
@<TRIPOS>BOND
     1    44    45    1
     2    45    46   ar
     3    46    47   ar
     4    47    48   ar
     5    48    49   ar
     6    49    50   ar
     7    50    51   ar
     8    51    52   ar
     9    52    53   ar
    10    53    36    1
    11    36    37    1
    12    37    38    1
    13    38    39    1
    14    39    40    1
    15    40    41    1
    16    41    42    1
    17    41    43    1
    18    43    35    1
    19    35    34    1
    20    34     1    1
    21     1    27    1
    22    27    28   ar
    23    28    29   ar
    24    29    30   ar
    25    30    31   ar
    26    31    32    1
    27    31    33   ar
    28     1     2    1
    29     2     3    1
    30     3     4    1
    31     4     5   am
    32     5     6    2
    33     5     9    1
    34     9    10   ar
    35    10    11   ar
    36    11    17    1
    37    17    18    2
    38    17    19    2
    39    17    20    1
    40    20    22    1
    41    22    23    1
    42    23    24    1
    43    24    25    1
    44    25    26    1
    45    11    12   ar
    46    12    13    1
    47    12    14   ar
    48    14    15   ar
    49    15    16    1
    50     4     7    1
    51     7     8    1
    52    53    45   ar
    53    42    36    1
    54     8     1    1
    55    52    47   ar
    56    43    38    1
    57    33    27   ar
    58    15     9   ar
    59    26    22    1
    60    20    21    1
@<TRIPOS>MOLECULE
*****
 53 60 0 0 0
SMALL
GASTEIGER

@<TRIPOS>ATOM
      1 C         140.7724  141.2125  161.1424 C.3     1  UNL1        0.0236
      2 C         140.2600  139.9749  160.4673 C.3     1  UNL1        0.0257
      3 C         141.0438  139.3500  159.3514 C.3     1  UNL1        0.0940
      4 N         142.3401  139.9628  158.9107 N.am    1  UNL1       -0.2760
      5 C         143.1239  139.3379  157.7948 C.2     1  UNL1        0.2499
      6 O         144.4202  139.9506  157.3540 O.2     1  UNL1       -0.2699
      7 C         142.8525  141.2004  159.5858 C.3     1  UNL1        0.0940
      8 C         142.0687  141.8252  160.7016 C.3     1  UNL1        0.0257
      9 C         142.6114  138.1003  157.1197 C.ar    1  UNL1        0.0656
     10 C         143.3502  136.8035  157.2697 C.ar    1  UNL1        0.0276
     11 C         142.8376  135.5660  156.5945 C.ar    1  UNL1        0.1494
     12 C         141.5863  135.6252  155.7695 C.ar    1  UNL1        0.1594
     13 F         141.0738  134.3876  155.0944 F       1  UNL1       -0.2027
     14 C         140.8475  136.9220  155.6196 C.ar    1  UNL1        0.0426
     15 C         141.3601  138.1596  156.2947 C.ar    1  UNL1        0.0643
     16 CL        140.6213  139.4564  156.1447 Cl      1  UNL1       -0.0820
     17 S         143.5764  134.2691  156.7445 S.O2    1  UNL1        0.0623
     18 O         144.0997  134.4055  155.3454 O.2     1  UNL1       -0.1529
     19 O         143.0530  134.1328  158.1436 O.2     1  UNL1       -0.1529
     20 N         144.3152  132.9723  156.8944 N.3     1  UNL1       -0.1807
     21 H         144.6479  132.9326  157.8578 H       1  UNL1        0.1487
     22 C         143.6138  131.6741  156.6246 C.3     1  UNL1        0.0755
     23 C         142.4758  131.4687  155.6693 C.3     1  UNL1        0.0174
     24 C         142.0859  130.0210  155.7171 C.3     1  UNL1        0.0015
     25 C         142.9830  129.3318  156.7020 C.3     1  UNL1        0.0015
     26 C         143.9273  130.3533  157.2629 C.3     1  UNL1        0.0174
     27 C         140.8433  142.3779  162.0842 C.ar    1  UNL1       -0.0204
     28 C         141.1648  142.1537  163.5320 C.ar    1  UNL1       -0.0041
     29 C         141.2356  143.3191  164.4738 C.ar    1  UNL1        0.0020
     30 C         140.9849  144.7087  163.9676 C.ar    1  UNL1        0.0296
     31 C         140.6634  144.9329  162.5197 C.ar    1  UNL1        0.1398
     32 F         140.4127  146.3224  162.0136 F       1  UNL1       -0.2042
     33 C         140.5926  143.7674  161.5780 C.ar    1  UNL1        0.0254
     34 C         139.5008  141.0045  161.9102 C.3     1  UNL1        0.0215
     35 C         138.1765  141.2393  161.2459 C.3     1  UNL1        0.0723
     36 C         138.1449  141.1763  161.1056 C.3     1  UNL1        0.0893
     37 C         138.4991  142.5095  160.5161 C.3     1  UNL1        0.0386
     38 C         138.4305  142.7152  159.0318 C.3     1  UNL1        0.0594
     39 C         138.2268  142.4720  157.5658 C.3     1  UNL1        0.0174
     40 C         137.7783  141.0515  157.3895 C.3     1  UNL1        0.0174
     41 C         137.7049  140.4168  158.7466 C.3     1  UNL1        0.0594
     42 C         137.7223  140.0491  160.2108 C.3     1  UNL1        0.0386
     43 N         138.1080  141.4451  159.7617 N.3     1  UNL1       -0.2751
     44 C         137.4898  143.3079  163.0350 C.3     1  UNL1        0.0718
     45 C         137.8985  141.9966  163.6377 C.ar    1  UNL1        0.1207
     46 N         138.0994  141.3627  164.9822 N.ar    1  UNL1       -0.2309
     47 C         138.5385  139.9449  164.7654 C.ar    1  UNL1        0.0983
     48 C         138.8833  138.8433  165.7233 C.ar    1  UNL1        0.0206
     49 C         139.2986  137.4993  165.2025 C.ar    1  UNL1        0.0016
     50 C         139.3691  137.2570  163.7239 C.ar    1  UNL1        0.0016
     51 C         139.0243  138.3585  162.7660 C.ar    1  UNL1        0.0188
     52 C         138.6090  139.7025  163.2868 C.ar    1  UNL1        0.0785
     53 N         138.2135  140.9705  162.5898 N.ar    1  UNL1       -0.3167
@<TRIPOS>BOND
     1    44    45    1
     2    45    46   ar
     3    46    47   ar
     4    47    48   ar
     5    48    49   ar
     6    49    50   ar
     7    50    51   ar
     8    51    52   ar
     9    52    53   ar
    10    53    36    1
    11    36    37    1
    12    37    38    1
    13    38    39    1
    14    39    40    1
    15    40    41    1
    16    41    42    1
    17    41    43    1
    18    43    35    1
    19    35    34    1
    20    34     1    1
    21     1    27    1
    22    27    28   ar
    23    28    29   ar
    24    29    30   ar
    25    30    31   ar
    26    31    32    1
    27    31    33   ar
    28     1     2    1
    29     2     3    1
    30     3     4    1
    31     4     5   am
    32     5     6    2
    33     5     9    1
    34     9    10   ar
    35    10    11   ar
    36    11    17    1
    37    17    18    2
    38    17    19    2
    39    17    20    1
    40    20    22    1
    41    22    23    1
    42    23    24    1
    43    24    25    1
    44    25    26    1
    45    11    12   ar
    46    12    13    1
    47    12    14   ar
    48    14    15   ar
    49    15    16    1
    50     4     7    1
    51     7     8    1
    52    53    45   ar
    53    42    36    1
    54     8     1    1
    55    52    47   ar
    56    43    38    1
    57    33    27   ar
    58    15     9   ar
    59    26    22    1
    60    20    21    1
@<TRIPOS>MOLECULE
*****
 53 60 0 0 0
SMALL
GASTEIGER

@<TRIPOS>ATOM
      1 C         140.3806  142.3545  161.5980 C.3     1  UNL1        0.0236
      2 C         141.2391  141.8007  160.4996 C.3     1  UNL1        0.0257
      3 C         140.6041  141.1382  159.3131 C.3     1  UNL1        0.0940
      4 N         139.1107  141.0294  159.2249 N.am    1  UNL1       -0.2760
      5 C         138.4757  140.3669  158.0383 C.2     1  UNL1        0.2499
      6 O         136.9823  140.2581  157.9501 O.2     1  UNL1       -0.2699
      7 C         138.2522  141.5832  160.3232 C.3     1  UNL1        0.0940
      8 C         138.8871  142.2457  161.5097 C.3     1  UNL1        0.0257
      9 C         139.3343  139.8131  156.9401 C.ar    1  UNL1        0.0656
     10 C         139.9577  138.4567  157.0869 C.ar    1  UNL1        0.0276
     11 C         140.8162  137.9031  155.9885 C.ar    1  UNL1        0.1494
     12 C         141.0513  138.7058  154.7434 C.ar    1  UNL1        0.1594
     13 F         141.9099  138.1520  153.6451 F       1  UNL1       -0.2027
     14 C         140.4280  140.0622  154.5966 C.ar    1  UNL1        0.0426
     15 C         139.5694  140.6159  155.6949 C.ar    1  UNL1        0.0643
     16 CL        138.9460  141.9723  155.5481 Cl      1  UNL1       -0.0820
     17 S         141.4396  136.5467  156.1353 S.O2    1  UNL1        0.0623
     18 O         142.7280  137.1851  156.5624 O.2     1  UNL1       -0.1529
     19 O         140.1511  135.9083  155.7083 O.2     1  UNL1       -0.1529
     20 N         142.0631  135.1902  156.2822 N.3     1  UNL1       -0.1807
     21 H         141.6595  134.7697  157.1192 H       1  UNL1        0.1487
     22 C         141.9281  134.1798  155.1818 C.3     1  UNL1        0.0755
     23 C         142.2263  134.4118  153.7302 C.3     1  UNL1        0.0174
     24 C         141.9538  133.1353  152.9911 C.3     1  UNL1        0.0015
     25 C         141.4872  132.1144  153.9861 C.3     1  UNL1        0.0015
     26 C         141.4713  132.7598  155.3399 C.3     1  UNL1        0.0174
     27 C         139.9941  143.0272  162.8818 C.ar    1  UNL1       -0.0204
     28 C         139.3407  144.3771  162.8541 C.ar    1  UNL1       -0.0041
     29 C         138.9542  145.0498  164.1379 C.ar    1  UNL1        0.0020
     30 C         139.2212  144.3725  165.4494 C.ar    1  UNL1        0.0296
     31 C         139.8746  143.0225  165.4771 C.ar    1  UNL1        0.1398
     32 F         140.1414  142.3453  166.7886 F       1  UNL1       -0.2042
     33 C         140.2610  142.3500  164.1932 C.ar    1  UNL1        0.0254
     34 C         141.7398  142.6969  162.1320 C.3     1  UNL1        0.0215
     35 C         142.5798  143.7287  161.4393 C.3     1  UNL1        0.0723
     36 C         142.5982  143.7285  161.2834 C.3     1  UNL1        0.0893
     37 C         141.5130  144.7630  161.2340 C.3     1  UNL1        0.0386
     38 C         141.0731  145.3261  159.9151 C.3     1  UNL1        0.0594
     39 C         140.9634  145.5930  158.4431 C.3     1  UNL1        0.0174
     40 C         141.9625  144.7237  157.7387 C.3     1  UNL1        0.0174
     41 C         142.6896  143.9195  158.7754 C.3     1  UNL1        0.0594
     42 C         143.2434  143.2573  160.0140 C.3     1  UNL1        0.0386
     43 N         142.1399  144.2918  160.1205 N.3     1  UNL1       -0.2751
     44 C         142.6839  145.3437  163.7491 C.3     1  UNL1        0.0718
     45 C         143.1113  143.9139  163.9002 C.ar    1  UNL1        0.1207
     46 N         143.6004  142.9660  164.9548 N.ar    1  UNL1       -0.2309
     47 C         143.8296  141.6318  164.3087 C.ar    1  UNL1        0.0983
     48 C         144.3097  140.3206  164.8565 C.ar    1  UNL1        0.0206
     49 C         144.4424  139.1327  163.9504 C.ar    1  UNL1        0.0016
     50 C         144.0948  139.2559  162.4964 C.ar    1  UNL1        0.0016
     51 C         143.6146  140.5671  161.9486 C.ar    1  UNL1        0.0188
     52 C         143.4820  141.7550  162.8548 C.ar    1  UNL1        0.0785
     53 N         143.0381  143.1654  162.6023 N.ar    1  UNL1       -0.3167
@<TRIPOS>BOND
     1    44    45    1
     2    45    46   ar
     3    46    47   ar
     4    47    48   ar
     5    48    49   ar
     6    49    50   ar
     7    50    51   ar
     8    51    52   ar
     9    52    53   ar
    10    53    36    1
    11    36    37    1
    12    37    38    1
    13    38    39    1
    14    39    40    1
    15    40    41    1
    16    41    42    1
    17    41    43    1
    18    43    35    1
    19    35    34    1
    20    34     1    1
    21     1    27    1
    22    27    28   ar
    23    28    29   ar
    24    29    30   ar
    25    30    31   ar
    26    31    32    1
    27    31    33   ar
    28     1     2    1
    29     2     3    1
    30     3     4    1
    31     4     5   am
    32     5     6    2
    33     5     9    1
    34     9    10   ar
    35    10    11   ar
    36    11    17    1
    37    17    18    2
    38    17    19    2
    39    17    20    1
    40    20    22    1
    41    22    23    1
    42    23    24    1
    43    24    25    1
    44    25    26    1
    45    11    12   ar
    46    12    13    1
    47    12    14   ar
    48    14    15   ar
    49    15    16    1
    50     4     7    1
    51     7     8    1
    52    53    45   ar
    53    42    36    1
    54     8     1    1
    55    52    47   ar
    56    43    38    1
    57    33    27   ar
    58    15     9   ar
    59    26    22    1
    60    20    21    1
@<TRIPOS>MOLECULE
*****
 53 60 0 0 0
SMALL
GASTEIGER

@<TRIPOS>ATOM
      1 C         141.8199  141.1766  161.8160 C.3     1  UNL1        0.0236
      2 C         140.7513  140.5512  160.9692 C.3     1  UNL1        0.0257
      3 C         141.1028  139.9516  159.6399 C.3     1  UNL1        0.0940
      4 N         142.5228  139.9775  159.1573 N.am    1  UNL1       -0.2760
      5 C         142.8743  139.3779  157.8280 C.2     1  UNL1        0.2499
      6 O         144.2943  139.4037  157.3455 O.2     1  UNL1       -0.2699
      7 C         143.5914  140.6029  160.0041 C.3     1  UNL1        0.0940
      8 C         143.2400  141.2025  161.3333 C.3     1  UNL1        0.0257
      9 C         141.8057  138.7525  156.9814 C.ar    1  UNL1        0.0656
     10 C         140.7649  139.6141  156.3297 C.ar    1  UNL1        0.0276
     11 C         139.6963  138.9886  155.4830 C.ar    1  UNL1        0.1494
     12 C         139.6685  137.5015  155.2880 C.ar    1  UNL1        0.1594
     13 F         138.5998  136.8762  154.4413 F       1  UNL1       -0.2027
     14 C         140.7092  136.6400  155.9396 C.ar    1  UNL1        0.0426
     15 C         141.7778  137.2655  156.7863 C.ar    1  UNL1        0.0643
     16 CL        142.8185  136.4040  157.4379 Cl      1  UNL1       -0.0820
     17 S         138.6556  139.8501  154.8314 S.O2    1  UNL1        0.0623
     18 O         139.4949  139.9255  153.5905 O.2     1  UNL1       -0.1529
     19 O         137.8163  139.7747  156.0723 O.2     1  UNL1       -0.1529
     20 N         137.6149  140.7117  154.1797 N.3     1  UNL1       -0.1807
     21 H         136.7097  140.3914  154.5240 H       1  UNL1        0.1487
     22 C         137.6479  142.1995  154.3677 C.3     1  UNL1        0.0755
     23 C         136.5449  143.1563  154.0244 C.3     1  UNL1        0.0174
     24 C         137.0051  144.5399  154.3765 C.3     1  UNL1        0.0015
     25 C         138.3926  144.4381  154.9374 C.3     1  UNL1        0.0015
     26 C         138.7899  142.9917  154.9319 C.3     1  UNL1        0.0174
     27 C         142.4743  141.8777  162.9694 C.ar    1  UNL1       -0.0204
     28 C         142.6778  141.1554  164.2682 C.ar    1  UNL1       -0.0041
     29 C         143.3322  141.8564  165.4217 C.ar    1  UNL1        0.0020
     30 C         143.7831  143.2797  165.2762 C.ar    1  UNL1        0.0296
     31 C         143.5796  144.0019  163.9773 C.ar    1  UNL1        0.1398
     32 F         144.0305  145.4250  163.8319 F       1  UNL1       -0.2042
     33 C         142.9252  143.3008  162.8240 C.ar    1  UNL1        0.0254
     34 C         140.6272  141.3942  162.6990 C.3     1  UNL1        0.0215
     35 C         139.5597  142.3663  162.2918 C.3     1  UNL1        0.0723
     36 C         139.5004  142.3615  162.1465 C.3     1  UNL1        0.0893
     37 C         140.4123  143.5075  161.8219 C.3     1  UNL1        0.0386
     38 C         140.4184  144.0932  160.4410 C.3     1  UNL1        0.0594
     39 C         140.1001  144.3458  158.9971 C.3     1  UNL1        0.0174
     40 C         139.0508  143.3607  158.5746 C.3     1  UNL1        0.0174
     41 C         138.7206  142.4992  159.7574 C.3     1  UNL1        0.0594
     42 C         138.5949  141.8013  161.0902 C.3     1  UNL1        0.0386
     43 N         139.5659  142.9519  160.9109 N.3     1  UNL1       -0.2751
     44 C         139.9040  143.9982  164.5660 C.3     1  UNL1        0.0718
     45 C         139.6909  142.5331  164.8072 C.ar    1  UNL1        0.1207
     46 N         139.6085  141.5553  165.9417 N.ar    1  UNL1       -0.2309
     47 C         139.3610  140.1937  165.3631 C.ar    1  UNL1        0.0983
     48 C         139.1909  138.8474  166.0022 C.ar    1  UNL1        0.0206
     49 C         138.9501  137.6373  165.1491 C.ar    1  UNL1        0.0016
     50 C         138.8794  137.7736  163.6570 C.ar    1  UNL1        0.0016
     51 C         139.0496  139.1199  163.0179 C.ar    1  UNL1        0.0188
     52 C         139.2904  140.3300  163.8710 C.ar    1  UNL1        0.0785
     53 N         139.4943  141.7758  163.5274 N.ar    1  UNL1       -0.3167
@<TRIPOS>BOND
     1    44    45    1
     2    45    46   ar
     3    46    47   ar
     4    47    48   ar
     5    48    49   ar
     6    49    50   ar
     7    50    51   ar
     8    51    52   ar
     9    52    53   ar
    10    53    36    1
    11    36    37    1
    12    37    38    1
    13    38    39    1
    14    39    40    1
    15    40    41    1
    16    41    42    1
    17    41    43    1
    18    43    35    1
    19    35    34    1
    20    34     1    1
    21     1    27    1
    22    27    28   ar
    23    28    29   ar
    24    29    30   ar
    25    30    31   ar
    26    31    32    1
    27    31    33   ar
    28     1     2    1
    29     2     3    1
    30     3     4    1
    31     4     5   am
    32     5     6    2
    33     5     9    1
    34     9    10   ar
    35    10    11   ar
    36    11    17    1
    37    17    18    2
    38    17    19    2
    39    17    20    1
    40    20    22    1
    41    22    23    1
    42    23    24    1
    43    24    25    1
    44    25    26    1
    45    11    12   ar
    46    12    13    1
    47    12    14   ar
    48    14    15   ar
    49    15    16    1
    50     4     7    1
    51     7     8    1
    52    53    45   ar
    53    42    36    1
    54     8     1    1
    55    52    47   ar
    56    43    38    1
    57    33    27   ar
    58    15     9   ar
    59    26    22    1
    60    20    21    1
