@<TRIPOS>MOLECULE
*****
 30 33 0 0 0
SMALL
GASTEIGER

@<TRIPOS>ATOM
      1 N         140.6205  140.9145  167.7546 N.3     1  UNL1       -0.2679
      2 C         139.9618  139.8253  166.9610 C.3     1  UNL1        0.0978
      3 C         138.5747  139.3753  167.3123 C.3     1  UNL1        0.0224
      4 C         137.9160  138.2861  166.5188 C.3     1  UNL1        0.0065
      5 C         138.6443  137.6469  165.3738 C.3     1  UNL1        0.0277
      6 C         140.0314  138.0970  165.0224 C.ar    1  UNL1       -0.0073
      7 C         140.7598  137.4578  163.8774 C.ar    1  UNL1       -0.0015
      8 C         142.1468  137.9079  163.5260 C.ar    1  UNL1        0.0203
      9 C         142.8056  138.9971  164.3196 C.ar    1  UNL1        0.0985
     10 N         142.0772  139.6362  165.4646 N.ar    1  UNL1       -0.2471
     11 C         140.6901  139.1862  165.8160 C.ar    1  UNL1        0.0695
     12 C         141.5618  140.5659  168.8692 C.3     1  UNL1        0.0725
     13 C         143.0020  140.9781  168.7911 C.3     1  UNL1        0.0187
     14 C         143.5794  141.8879  169.8346 C.3     1  UNL1        0.0183
     15 N         143.3863  144.0588  171.2488 N.3     1  UNL1       -0.3211
     16 C         142.7444  142.9923  170.4117 C.3     1  UNL1        0.0652
     17 H         142.6761  144.7234  171.5559 H       1  UNL1        0.1189
     18 H         144.0917  144.5462  170.6963 H       1  UNL1        0.1189
     19 C         140.3378  142.3522  167.4336 C.3     1  UNL1        0.0886
     20 C         140.7151  142.9095  166.0930 C.3     1  UNL1        0.0764
     21 C         139.7457  143.7710  165.3392 C.3     1  UNL1        0.0626
     22 C         140.1229  144.3284  163.9986 C.ar    1  UNL1        0.0577
     23 N         139.1536  145.1899  163.2448 N.ar    1  UNL1       -0.2484
     24 C         139.5309  145.7472  161.9043 C.ar    1  UNL1        0.0984
     25 C         140.8774  145.4430  161.3176 C.ar    1  UNL1        0.0204
     26 C         141.8467  144.5815  162.0713 C.ar    1  UNL1       -0.0002
     27 C         141.4695  144.0242  163.4118 C.ar    1  UNL1        0.0073
     28 C         142.4388  143.1626  164.1657 C.3     1  UNL1        0.0968
     29 N         142.0616  142.6053  165.5062 N.3     1  UNL1       -0.2934
     30 H         142.7562  142.9440  166.1720 H       1  UNL1        0.1236
@<TRIPOS>BOND
     1    15    16    1
     2    16    14    1
     3    14    13    1
     4    13    12    1
     5    12     1    1
     6     1    19    1
     7    20    19    1
     8    20    21    1
     9    21    22    1
    10    22    23   ar
    11    23    24   ar
    12    24    25   ar
    13    25    26   ar
    14    26    27   ar
    15    27    28    1
    16    28    29    1
    17     2     1    1
    18     2     3    1
    19     3     4    1
    20     4     5    1
    21     5     6    1
    22     6     7   ar
    23     7     8   ar
    24     8     9   ar
    25     9    10   ar
    26    10    11   ar
    27    29    20    1
    28    11     2    1
    29    27    22   ar
    30    11     6   ar
    31    15    17    1
    32    15    18    1
    33    29    30    1
@<TRIPOS>MOLECULE
*****
 30 33 0 0 0
SMALL
GASTEIGER

@<TRIPOS>ATOM
      1 N         138.5241  140.2374  163.7901 N.3     1  UNL1       -0.2679
      2 C         138.7766  141.6915  164.0581 C.3     1  UNL1        0.0978
      3 C         137.6411  142.5905  164.4482 C.3     1  UNL1        0.0224
      4 C         137.8936  144.0446  164.7162 C.3     1  UNL1        0.0065
      5 C         139.2817  144.5997  164.5941 C.3     1  UNL1        0.0277
      6 C         140.4173  143.7007  164.2040 C.ar    1  UNL1       -0.0073
      7 C         141.8055  144.2558  164.0818 C.ar    1  UNL1       -0.0015
      8 C         142.9410  143.3568  163.6917 C.ar    1  UNL1        0.0203
      9 C         142.6885  141.9027  163.4238 C.ar    1  UNL1        0.0985
     10 N         141.3004  141.3476  163.5459 N.ar    1  UNL1       -0.2471
     11 C         140.1647  142.2466  163.9360 C.ar    1  UNL1        0.0695
     12 C         138.1733  139.7798  162.4054 C.3     1  UNL1        0.0725
     13 C         138.5062  138.3835  161.9700 C.3     1  UNL1        0.0187
     14 C         139.8250  138.0962  161.3157 C.3     1  UNL1        0.0183
     15 N         141.1385  136.8920  163.2064 N.3     1  UNL1       -0.3211
     16 C         141.0623  137.9562  162.1520 C.3     1  UNL1        0.0652
     17 H         142.0435  136.9410  163.6742 H       1  UNL1        0.1189
     18 H         141.0291  135.9752  162.7728 H       1  UNL1        0.1189
     19 C         138.6224  139.2408  164.9068 C.3     1  UNL1        0.0886
     20 C         139.6466  139.4239  165.9875 C.3     1  UNL1        0.0764
     21 C         139.2219  139.8685  167.3557 C.3     1  UNL1        0.0626
     22 C         140.2461  140.0515  168.4363 C.ar    1  UNL1        0.0577
     23 N         139.8214  140.4961  169.8045 N.ar    1  UNL1       -0.2484
     24 C         140.8456  140.6791  170.8851 C.ar    1  UNL1        0.0984
     25 C         142.2943  140.4176  170.5974 C.ar    1  UNL1        0.0204
     26 C         142.7189  139.9731  169.2292 C.ar    1  UNL1       -0.0002
     27 C         141.6948  139.7900  168.1487 C.ar    1  UNL1        0.0073
     28 C         142.1194  139.3455  166.7804 C.3     1  UNL1        0.0968
     29 N         141.0953  139.1624  165.6998 N.3     1  UNL1       -0.2934
     30 H         141.1637  138.1929  165.3905 H       1  UNL1        0.1236
@<TRIPOS>BOND
     1    15    16    1
     2    16    14    1
     3    14    13    1
     4    13    12    1
     5    12     1    1
     6     1    19    1
     7    20    19    1
     8    20    21    1
     9    21    22    1
    10    22    23   ar
    11    23    24   ar
    12    24    25   ar
    13    25    26   ar
    14    26    27   ar
    15    27    28    1
    16    28    29    1
    17     2     1    1
    18     2     3    1
    19     3     4    1
    20     4     5    1
    21     5     6    1
    22     6     7   ar
    23     7     8   ar
    24     8     9   ar
    25     9    10   ar
    26    10    11   ar
    27    29    20    1
    28    11     2    1
    29    27    22   ar
    30    11     6   ar
    31    15    17    1
    32    15    18    1
    33    29    30    1
@<TRIPOS>MOLECULE
*****
 30 33 0 0 0
SMALL
GASTEIGER

@<TRIPOS>ATOM
      1 N         141.3014  140.1498  163.3688 N.3     1  UNL1       -0.2679
      2 C         141.4769  141.6221  163.5955 C.3     1  UNL1        0.0978
      3 C         142.8320  142.2477  163.4461 C.3     1  UNL1        0.0224
      4 C         143.0074  143.7201  163.6728 C.3     1  UNL1        0.0065
      5 C         141.8278  144.5668  164.0489 C.3     1  UNL1        0.0277
      6 C         140.4728  143.9413  164.1982 C.ar    1  UNL1       -0.0073
      7 C         139.2930  144.7880  164.5743 C.ar    1  UNL1       -0.0015
      8 C         137.9380  144.1624  164.7236 C.ar    1  UNL1        0.0203
      9 C         137.7625  142.6901  164.4969 C.ar    1  UNL1        0.0985
     10 N         138.9421  141.8433  164.1209 N.ar    1  UNL1       -0.2471
     11 C         140.2973  142.4689  163.9715 C.ar    1  UNL1        0.0695
     12 C         140.8496  139.6456  162.0302 C.3     1  UNL1        0.0725
     13 C         140.2848  138.2619  161.9015 C.3     1  UNL1        0.0187
     14 C         138.8132  138.0330  162.0796 C.3     1  UNL1        0.0183
     15 N         137.2853  140.1344  162.0731 N.3     1  UNL1       -0.3211
     16 C         137.8262  138.9193  161.3794 C.3     1  UNL1        0.0652
     17 H         136.6323  140.6162  161.4553 H       1  UNL1        0.1189
     18 H         138.0543  140.7611  162.3103 H       1  UNL1        0.1189
     19 C         141.5777  139.1816  164.4806 C.3     1  UNL1        0.0886
     20 C         141.1107  139.4856  165.8733 C.3     1  UNL1        0.0764
     21 C         142.1103  139.7824  166.9515 C.3     1  UNL1        0.0626
     22 C         141.6433  140.0864  168.3442 C.ar    1  UNL1        0.0577
     23 N         142.6429  140.3831  169.4225 N.ar    1  UNL1       -0.2484
     24 C         142.1759  140.6871  170.8151 C.ar    1  UNL1        0.0984
     25 C         140.7092  140.6944  171.1294 C.ar    1  UNL1        0.0204
     26 C         139.7096  140.3976  170.0512 C.ar    1  UNL1       -0.0002
     27 C         140.1766  140.0936  168.6586 C.ar    1  UNL1        0.0073
     28 C         139.1770  139.7968  167.5803 C.3     1  UNL1        0.0968
     29 N         139.6440  139.4928  166.1877 N.3     1  UNL1       -0.2934
     30 H         139.2151  140.1866  165.5752 H       1  UNL1        0.1236
@<TRIPOS>BOND
     1    15    16    1
     2    16    14    1
     3    14    13    1
     4    13    12    1
     5    12     1    1
     6     1    19    1
     7    20    19    1
     8    20    21    1
     9    21    22    1
    10    22    23   ar
    11    23    24   ar
    12    24    25   ar
    13    25    26   ar
    14    26    27   ar
    15    27    28    1
    16    28    29    1
    17     2     1    1
    18     2     3    1
    19     3     4    1
    20     4     5    1
    21     5     6    1
    22     6     7   ar
    23     7     8   ar
    24     8     9   ar
    25     9    10   ar
    26    10    11   ar
    27    29    20    1
    28    11     2    1
    29    27    22   ar
    30    11     6   ar
    31    15    17    1
    32    15    18    1
    33    29    30    1
@<TRIPOS>MOLECULE
*****
 30 33 0 0 0
SMALL
GASTEIGER

@<TRIPOS>ATOM
      1 N         141.9898  141.7285  167.6834 N.3     1  UNL1       -0.2679
      2 C         142.6984  140.7944  166.7478 C.3     1  UNL1        0.0978
      3 C         142.6300  139.3130  166.9727 C.3     1  UNL1        0.0224
      4 C         143.3386  138.3788  166.0372 C.3     1  UNL1        0.0065
      5 C         144.1155  138.9261  164.8767 C.3     1  UNL1        0.0277
      6 C         144.1839  140.4075  164.6518 C.ar    1  UNL1       -0.0073
      7 C         144.9609  140.9549  163.4913 C.ar    1  UNL1       -0.0015
      8 C         145.0293  142.4363  163.2664 C.ar    1  UNL1        0.0203
      9 C         144.3207  143.3705  164.2019 C.ar    1  UNL1        0.0985
     10 N         143.5437  142.8232  165.3624 N.ar    1  UNL1       -0.2471
     11 C         143.4753  141.3417  165.5874 C.ar    1  UNL1        0.0695
     12 C         142.7135  142.2941  168.8692 C.3     1  UNL1        0.0725
     13 C         143.1337  141.3921  169.9917 C.3     1  UNL1        0.0187
     14 C         142.1035  140.8186  170.9188 C.3     1  UNL1        0.0183
     15 N         139.8513  139.5477  171.1693 N.3     1  UNL1       -0.3211
     16 C         141.1211  139.8042  170.4130 C.3     1  UNL1        0.0652
     17 H         139.3063  138.8335  170.6863 H       1  UNL1        0.1189
     18 H         139.3088  140.4096  171.2250 H       1  UNL1        0.1189
     19 C         140.5575  142.0971  167.4331 C.3     1  UNL1        0.0886
     20 C         139.8564  141.5923  166.2067 C.3     1  UNL1        0.0764
     21 C         139.9165  142.3792  164.9312 C.3     1  UNL1        0.0626
     22 C         139.2154  141.8745  163.7048 C.ar    1  UNL1        0.0577
     23 N         139.2755  142.6614  162.4292 N.ar    1  UNL1       -0.2484
     24 C         138.5745  142.1566  161.2030 C.ar    1  UNL1        0.0984
     25 C         137.8134  140.8650  161.2523 C.ar    1  UNL1        0.0204
     26 C         137.7534  140.0781  162.5279 C.ar    1  UNL1       -0.0002
     27 C         138.4544  140.5828  163.7541 C.ar    1  UNL1        0.0073
     28 C         138.3943  139.7959  165.0298 C.3     1  UNL1        0.0968
     29 N         139.0954  140.3007  166.2561 N.3     1  UNL1       -0.2934
     30 H         139.7594  139.5781  166.5341 H       1  UNL1        0.1236
@<TRIPOS>BOND
     1    15    16    1
     2    16    14    1
     3    14    13    1
     4    13    12    1
     5    12     1    1
     6     1    19    1
     7    20    19    1
     8    20    21    1
     9    21    22    1
    10    22    23   ar
    11    23    24   ar
    12    24    25   ar
    13    25    26   ar
    14    26    27   ar
    15    27    28    1
    16    28    29    1
    17     2     1    1
    18     2     3    1
    19     3     4    1
    20     4     5    1
    21     5     6    1
    22     6     7   ar
    23     7     8   ar
    24     8     9   ar
    25     9    10   ar
    26    10    11   ar
    27    29    20    1
    28    11     2    1
    29    27    22   ar
    30    11     6   ar
    31    15    17    1
    32    15    18    1
    33    29    30    1
@<TRIPOS>MOLECULE
*****
 30 33 0 0 0
SMALL
GASTEIGER

@<TRIPOS>ATOM
      1 N         141.3114  141.9353  167.3427 N.3     1  UNL1       -0.2679
      2 C         142.0305  142.6354  166.2279 C.3     1  UNL1        0.0978
      3 C         143.5157  142.4841  166.0818 C.3     1  UNL1        0.0224
      4 C         144.2348  143.1841  164.9670 C.3     1  UNL1        0.0065
      5 C         143.4688  144.0354  163.9983 C.3     1  UNL1        0.0277
      6 C         141.9836  144.1867  164.1444 C.ar    1  UNL1       -0.0073
      7 C         141.2175  145.0380  163.1756 C.ar    1  UNL1       -0.0015
      8 C         139.7324  145.1893  163.3217 C.ar    1  UNL1        0.0203
      9 C         139.0133  144.4892  164.4366 C.ar    1  UNL1        0.0985
     10 N         139.7793  143.6380  165.4053 N.ar    1  UNL1       -0.2471
     11 C         141.2645  143.4866  165.2592 C.ar    1  UNL1        0.0695
     12 C         141.1678  142.6028  168.6783 C.3     1  UNL1        0.0725
     13 C         142.3679  142.7818  169.5603 C.3     1  UNL1        0.0187
     14 C         143.3254  141.6452  169.7638 C.3     1  UNL1        0.0183
     15 N         142.2175  140.5481  171.8420 N.3     1  UNL1       -0.3211
     16 C         142.8855  140.4178  170.5053 C.3     1  UNL1        0.0652
     17 H         141.9877  139.6208  172.1992 H       1  UNL1        0.1189
     18 H         141.3626  141.0957  171.7430 H       1  UNL1        0.1189
     19 C         140.7359  140.5679  167.1220 C.3     1  UNL1        0.0886
     20 C         140.0765  140.2334  165.8168 C.3     1  UNL1        0.0764
     21 C         140.8345  139.4786  164.7653 C.3     1  UNL1        0.0626
     22 C         140.1750  139.1442  163.4601 C.ar    1  UNL1        0.0577
     23 N         140.9330  138.3894  162.4086 N.ar    1  UNL1       -0.2484
     24 C         140.2736  138.0550  161.1035 C.ar    1  UNL1        0.0984
     25 C         138.8562  138.4753  160.8500 C.ar    1  UNL1        0.0204
     26 C         138.0982  139.2301  161.9015 C.ar    1  UNL1       -0.0002
     27 C         138.7576  139.5645  163.2066 C.ar    1  UNL1        0.0073
     28 C         137.9997  140.3193  164.2582 C.3     1  UNL1        0.0968
     29 N         138.6591  140.6537  165.5633 N.3     1  UNL1       -0.2934
     30 H         138.0908  140.2309  166.2972 H       1  UNL1        0.1236
@<TRIPOS>BOND
     1    15    16    1
     2    16    14    1
     3    14    13    1
     4    13    12    1
     5    12     1    1
     6     1    19    1
     7    20    19    1
     8    20    21    1
     9    21    22    1
    10    22    23   ar
    11    23    24   ar
    12    24    25   ar
    13    25    26   ar
    14    26    27   ar
    15    27    28    1
    16    28    29    1
    17     2     1    1
    18     2     3    1
    19     3     4    1
    20     4     5    1
    21     5     6    1
    22     6     7   ar
    23     7     8   ar
    24     8     9   ar
    25     9    10   ar
    26    10    11   ar
    27    29    20    1
    28    11     2    1
    29    27    22   ar
    30    11     6   ar
    31    15    17    1
    32    15    18    1
    33    29    30    1
@<TRIPOS>MOLECULE
*****
 30 33 0 0 0
SMALL
GASTEIGER

@<TRIPOS>ATOM
      1 N         140.2135  141.5063  166.5017 N.3     1  UNL1       -0.2679
      2 C         140.1765  142.7168  165.6168 C.3     1  UNL1        0.0978
      3 C         138.8641  143.3611  165.2817 C.3     1  UNL1        0.0224
      4 C         138.8271  144.5716  164.3967 C.3     1  UNL1        0.0065
      5 C         140.1025  145.1379  163.8468 C.3     1  UNL1        0.0277
      6 C         141.4150  144.4937  164.1819 C.ar    1  UNL1       -0.0073
      7 C         142.6905  145.0600  163.6320 C.ar    1  UNL1       -0.0015
      8 C         144.0030  144.4157  163.9670 C.ar    1  UNL1        0.0203
      9 C         144.0400  143.2052  164.8520 C.ar    1  UNL1        0.0985
     10 N         142.7646  142.6389  165.4019 N.ar    1  UNL1       -0.2471
     11 C         141.4520  143.2831  165.0669 C.ar    1  UNL1        0.0695
     12 C         140.4443  141.6615  167.9757 C.3     1  UNL1        0.0725
     13 C         140.4653  143.0291  168.5916 C.3     1  UNL1        0.0187
     14 C         141.2609  143.2779  169.8386 C.3     1  UNL1        0.0183
     15 N         140.5837  142.1069  172.0568 N.3     1  UNL1       -0.3211
     16 C         141.4544  142.1755  170.8372 C.3     1  UNL1        0.0652
     17 H         140.8518  141.3006  172.6211 H       1  UNL1        0.1189
     18 H         139.6082  142.0143  171.7734 H       1  UNL1        0.1189
     19 C         140.0198  140.1404  165.9128 C.3     1  UNL1        0.0886
     20 C         140.9627  139.6367  164.8604 C.3     1  UNL1        0.0764
     21 C         140.4708  139.4020  163.4630 C.3     1  UNL1        0.0626
     22 C         141.4137  138.8983  162.4107 C.ar    1  UNL1        0.0577
     23 N         140.9219  138.6636  161.0132 N.ar    1  UNL1       -0.2484
     24 C         141.8648  138.1599  159.9610 C.ar    1  UNL1        0.0984
     25 C         143.2995  137.8910  160.3062 C.ar    1  UNL1        0.0204
     26 C         143.7914  138.1257  161.7037 C.ar    1  UNL1       -0.0002
     27 C         142.8485  138.6294  162.7559 C.ar    1  UNL1        0.0073
     28 C         143.3403  138.8641  164.1534 C.3     1  UNL1        0.0968
     29 N         142.3974  139.3678  165.2057 N.3     1  UNL1       -0.2934
     30 H         142.7858  140.2444  165.5538 H       1  UNL1        0.1236
@<TRIPOS>BOND
     1    15    16    1
     2    16    14    1
     3    14    13    1
     4    13    12    1
     5    12     1    1
     6     1    19    1
     7    20    19    1
     8    20    21    1
     9    21    22    1
    10    22    23   ar
    11    23    24   ar
    12    24    25   ar
    13    25    26   ar
    14    26    27   ar
    15    27    28    1
    16    28    29    1
    17     2     1    1
    18     2     3    1
    19     3     4    1
    20     4     5    1
    21     5     6    1
    22     6     7   ar
    23     7     8   ar
    24     8     9   ar
    25     9    10   ar
    26    10    11   ar
    27    29    20    1
    28    11     2    1
    29    27    22   ar
    30    11     6   ar
    31    15    17    1
    32    15    18    1
    33    29    30    1
@<TRIPOS>MOLECULE
*****
 30 33 0 0 0
SMALL
GASTEIGER

@<TRIPOS>ATOM
      1 N         140.3228  142.0977  167.4401 N.3     1  UNL1       -0.2679
      2 C         140.4834  142.9885  166.2439 C.3     1  UNL1        0.0978
      3 C         139.3798  143.9266  165.8539 C.3     1  UNL1        0.0224
      4 C         139.5404  144.8174  164.6578 C.3     1  UNL1        0.0065
      5 C         140.8044  144.7700  163.8517 C.3     1  UNL1        0.0277
      6 C         141.9079  143.8319  164.2417 C.ar    1  UNL1       -0.0073
      7 C         143.1721  143.7846  163.4355 C.ar    1  UNL1       -0.0015
      8 C         144.2756  142.8464  163.8255 C.ar    1  UNL1        0.0203
      9 C         144.1150  141.9557  165.0217 C.ar    1  UNL1        0.0985
     10 N         142.8510  142.0030  165.8278 N.ar    1  UNL1       -0.2471
     11 C         141.7474  142.9411  165.4378 C.ar    1  UNL1        0.0695
     12 C         140.7420  142.5810  168.7968 C.3     1  UNL1        0.0725
     13 C         142.1748  142.4635  169.2252 C.3     1  UNL1        0.0187
     14 C         142.6144  141.2987  170.0618 C.3     1  UNL1        0.0183
     15 N         142.9843  139.6537  168.0851 N.3     1  UNL1       -0.3211
     16 C         142.5584  139.9088  169.5007 C.3     1  UNL1        0.0652
     17 H         142.8818  138.6613  167.8728 H       1  UNL1        0.1189
     18 H         143.9601  139.9272  167.9692 H       1  UNL1        0.1189
     19 C         139.7431  140.7236  167.2795 C.3     1  UNL1        0.0886
     20 C         139.8484  140.0144  165.9619 C.3     1  UNL1        0.0764
     21 C         138.7586  140.1616  164.9418 C.3     1  UNL1        0.0626
     22 C         138.8639  139.4524  163.6242 C.ar    1  UNL1        0.0577
     23 N         137.7741  139.5996  162.6040 N.ar    1  UNL1       -0.2484
     24 C         137.8794  138.8905  161.2865 C.ar    1  UNL1        0.0984
     25 C         139.0745  138.0341  160.9891 C.ar    1  UNL1        0.0204
     26 C         140.1642  137.8869  162.0092 C.ar    1  UNL1       -0.0002
     27 C         140.0589  138.5960  163.3268 C.ar    1  UNL1        0.0073
     28 C         141.1487  138.4488  164.3470 C.3     1  UNL1        0.0968
     29 N         141.0434  139.1580  165.6645 N.3     1  UNL1       -0.2934
     30 H         141.8634  139.7598  165.7413 H       1  UNL1        0.1236
@<TRIPOS>BOND
     1    15    16    1
     2    16    14    1
     3    14    13    1
     4    13    12    1
     5    12     1    1
     6     1    19    1
     7    20    19    1
     8    20    21    1
     9    21    22    1
    10    22    23   ar
    11    23    24   ar
    12    24    25   ar
    13    25    26   ar
    14    26    27   ar
    15    27    28    1
    16    28    29    1
    17     2     1    1
    18     2     3    1
    19     3     4    1
    20     4     5    1
    21     5     6    1
    22     6     7   ar
    23     7     8   ar
    24     8     9   ar
    25     9    10   ar
    26    10    11   ar
    27    29    20    1
    28    11     2    1
    29    27    22   ar
    30    11     6   ar
    31    15    17    1
    32    15    18    1
    33    29    30    1
@<TRIPOS>MOLECULE
*****
 30 33 0 0 0
SMALL
GASTEIGER

@<TRIPOS>ATOM
      1 N         139.9112  140.3818  163.3801 N.3     1  UNL1       -0.2679
      2 C         141.3080  139.8838  163.1546 C.3     1  UNL1        0.0978
      3 C         141.5332  138.5192  162.5742 C.3     1  UNL1        0.0224
      4 C         142.9300  138.0212  162.3487 C.3     1  UNL1        0.0065
      5 C         144.1017  138.8879  162.7035 C.3     1  UNL1        0.0277
      6 C         143.8765  140.2526  163.2839 C.ar    1  UNL1       -0.0073
      7 C         145.0482  141.1194  163.6388 C.ar    1  UNL1       -0.0015
      8 C         144.8230  142.4840  164.2192 C.ar    1  UNL1        0.0203
      9 C         143.4262  142.9820  164.4448 C.ar    1  UNL1        0.0985
     10 N         142.2545  142.1153  164.0899 N.ar    1  UNL1       -0.2471
     11 C         142.4797  140.7505  163.5095 C.ar    1  UNL1        0.0695
     12 C         139.2283  141.2025  162.3266 C.3     1  UNL1        0.0725
     13 C         138.0526  142.0607  162.6893 C.3     1  UNL1        0.0187
     14 C         138.1637  143.5548  162.6159 C.3     1  UNL1        0.0183
     15 N         139.1987  145.0110  164.5023 N.3     1  UNL1       -0.3211
     16 C         138.0000  144.3808  163.8572 C.3     1  UNL1        0.0652
     17 H         138.9055  145.5321  165.3286 H       1  UNL1        0.1189
     18 H         139.6463  145.6458  163.8411 H       1  UNL1        0.1189
     19 C         139.1972  140.0591  164.6592 C.3     1  UNL1        0.0886
     20 C         139.6117  140.7246  165.9380 C.3     1  UNL1        0.0764
     21 C         139.6579  139.9361  167.2132 C.3     1  UNL1        0.0626
     22 C         140.0724  140.6016  168.4920 C.ar    1  UNL1        0.0577
     23 N         140.1186  139.8131  169.7671 N.ar    1  UNL1       -0.2484
     24 C         140.5331  140.4786  171.0459 C.ar    1  UNL1        0.0984
     25 C         140.9014  141.9327  171.0495 C.ar    1  UNL1        0.0204
     26 C         140.8552  142.7213  169.7743 C.ar    1  UNL1       -0.0002
     27 C         140.4407  142.0557  168.4956 C.ar    1  UNL1        0.0073
     28 C         140.3944  142.8443  167.2204 C.3     1  UNL1        0.0968
     29 N         139.9800  142.1787  165.9416 N.3     1  UNL1       -0.2934
     30 H         140.7555  142.2877  165.2882 H       1  UNL1        0.1236
@<TRIPOS>BOND
     1    15    16    1
     2    16    14    1
     3    14    13    1
     4    13    12    1
     5    12     1    1
     6     1    19    1
     7    20    19    1
     8    20    21    1
     9    21    22    1
    10    22    23   ar
    11    23    24   ar
    12    24    25   ar
    13    25    26   ar
    14    26    27   ar
    15    27    28    1
    16    28    29    1
    17     2     1    1
    18     2     3    1
    19     3     4    1
    20     4     5    1
    21     5     6    1
    22     6     7   ar
    23     7     8   ar
    24     8     9   ar
    25     9    10   ar
    26    10    11   ar
    27    29    20    1
    28    11     2    1
    29    27    22   ar
    30    11     6   ar
    31    15    17    1
    32    15    18    1
    33    29    30    1
@<TRIPOS>MOLECULE
*****
 30 33 0 0 0
SMALL
GASTEIGER

@<TRIPOS>ATOM
      1 N         138.5393  140.5320  163.4590 N.3     1  UNL1       -0.2679
      2 C         138.7841  141.9455  163.8973 C.3     1  UNL1        0.0978
      3 C         137.6548  142.7674  164.4441 C.3     1  UNL1        0.0224
      4 C         137.8996  144.1810  164.8824 C.3     1  UNL1        0.0065
      5 C         139.2737  144.7725  164.7737 C.3     1  UNL1        0.0277
      6 C         140.4030  143.9506  164.2269 C.ar    1  UNL1       -0.0073
      7 C         141.7772  144.5422  164.1182 C.ar    1  UNL1       -0.0015
      8 C         142.9065  143.7202  163.5714 C.ar    1  UNL1        0.0203
      9 C         142.6617  142.3067  163.1332 C.ar    1  UNL1        0.0985
     10 N         141.2876  141.7152  163.2418 N.ar    1  UNL1       -0.2471
     11 C         140.1582  142.5371  163.7887 C.ar    1  UNL1        0.0695
     12 C         138.0857  140.2492  162.0575 C.3     1  UNL1        0.0725
     13 C         138.9089  140.7168  160.8940 C.3     1  UNL1        0.0187
     14 C         138.5613  141.9983  160.1963 C.3     1  UNL1        0.0183
     15 N         139.2200  144.4095  160.9053 N.3     1  UNL1       -0.3211
     16 C         139.5406  143.1345  160.1829 C.3     1  UNL1        0.0652
     17 H         139.9909  145.0676  160.7918 H       1  UNL1        0.1189
     18 H         139.0836  144.2134  161.8969 H       1  UNL1        0.1189
     19 C         138.7480  139.4013  164.4223 C.3     1  UNL1        0.0886
     20 C         139.6714  139.5732  165.5919 C.3     1  UNL1        0.0764
     21 C         139.1097  139.7398  166.9727 C.3     1  UNL1        0.0626
     22 C         140.0331  139.9117  168.1424 C.ar    1  UNL1        0.0577
     23 N         139.4714  140.0782  169.5232 N.ar    1  UNL1       -0.2484
     24 C         140.3947  140.2501  170.6927 C.ar    1  UNL1        0.0984
     25 C         141.8798  140.2555  170.4814 C.ar    1  UNL1        0.0204
     26 C         142.4415  140.0889  169.1006 C.ar    1  UNL1       -0.0002
     27 C         141.5181  139.9170  167.9311 C.ar    1  UNL1        0.0073
     28 C         142.0798  139.7505  166.5501 C.3     1  UNL1        0.0968
     29 N         141.1564  139.5786  165.3806 N.3     1  UNL1       -0.2934
     30 H         141.3951  138.6874  164.9455 H       1  UNL1        0.1236
@<TRIPOS>BOND
     1    15    16    1
     2    16    14    1
     3    14    13    1
     4    13    12    1
     5    12     1    1
     6     1    19    1
     7    20    19    1
     8    20    21    1
     9    21    22    1
    10    22    23   ar
    11    23    24   ar
    12    24    25   ar
    13    25    26   ar
    14    26    27   ar
    15    27    28    1
    16    28    29    1
    17     2     1    1
    18     2     3    1
    19     3     4    1
    20     4     5    1
    21     5     6    1
    22     6     7   ar
    23     7     8   ar
    24     8     9   ar
    25     9    10   ar
    26    10    11   ar
    27    29    20    1
    28    11     2    1
    29    27    22   ar
    30    11     6   ar
    31    15    17    1
    32    15    18    1
    33    29    30    1
