@<TRIPOS>MOLECULE
*****
 37 40 0 0 0
SMALL
GASTEIGER

@<TRIPOS>ATOM
      1 C         138.0773  140.9920  162.8651 C.ar    1  UNL1        0.1534
      2 C         137.5635  140.0856  163.9442 C.ar    1  UNL1        0.0591
      3 C         138.2397  140.0548  165.2828 C.ar    1  UNL1        0.1072
      4 N         137.7258  139.1483  166.3619 N.ar    1  UNL1       -0.1477
      5 N         138.4020  139.1175  167.7005 N.ar    1  UNL1       -0.1421
      6 C         139.5920  139.9931  167.9600 C.ar    1  UNL1        0.1690
      7 C         140.1058  140.8995  166.8809 C.ar    1  UNL1        0.0740
      8 C         139.4296  140.9303  165.5423 C.ar    1  UNL1        0.0359
      9 C         139.9434  141.8367  164.4633 C.ar    1  UNL1        0.0204
     10 C         139.2672  141.8675  163.1247 C.ar    1  UNL1        0.0825
     11 N         139.7811  142.7740  162.0456 N.pl3   1  UNL1       -0.3023
     12 C         140.5990  142.2123  160.9207 C.3     1  UNL1        0.1082
     13 C         141.1128  143.1186  159.8416 C.3     1  UNL1        0.0939
     14 N         140.8087  144.5868  159.8874 N.3     1  UNL1       -0.2677
     15 C         139.9908  145.1486  161.0123 C.3     1  UNL1        0.0939
     16 C         139.4770  144.2421  162.0914 C.3     1  UNL1        0.1082
     17 C         141.3226  145.4932  158.8083 C.3     1  UNL1        0.1043
     18 C         140.5620  145.6357  157.5233 C.3     1  UNL1        0.1544
     19 O         139.9736  146.9621  157.1432 O.3     1  UNL1       -0.3805
     20 H         139.2743  147.1979  157.7728 H       1  UNL1        0.2105
     21 C         140.2682  139.9623  169.2986 C.2     1  UNL1        0.2635
     22 N         139.4475  139.9824  170.5541 N.am    1  UNL1       -0.3240
     23 O         141.7650  139.9114  169.3818 O.2     1  UNL1       -0.2686
     24 H         138.4650  140.0158  170.4995 H       1  UNL1        0.1453
     25 H         139.8912  139.9621  171.4327 H       1  UNL1        0.1453
     26 C         137.6394  139.9181  160.5403 C.3     1  UNL1        0.2525
     27 O         137.4011  141.0228  161.5265 O.3     1  UNL1       -0.4701
     28 N         141.2957  141.7751  167.1405 N.pl3   1  UNL1       -0.3094
     29 H         141.3048  142.3746  167.9213 H       1  UNL1        0.1523
     30 C         142.4719  141.7371  166.2103 C.ar    1  UNL1        0.0761
     31 C         143.0646  143.0164  165.6982 C.ar    1  UNL1        0.0166
     32 C         144.2408  142.9785  164.7681 C.ar    1  UNL1       -0.0028
     33 C         144.8243  141.6613  164.3500 C.ar    1  UNL1       -0.0195
     34 C         146.0005  141.6235  163.4199 C.3     1  UNL1        0.0311
     35 C         144.2316  140.3821  164.8621 C.ar    1  UNL1        0.0267
     36 C         143.0554  140.4200  165.7923 C.ar    1  UNL1        0.1531
     37 F         142.4627  139.1408  166.3044 F       1  UNL1       -0.2029
@<TRIPOS>BOND
     1    26    27    1
     2    27     1    1
     3     1     2   ar
     4     2     3   ar
     5     3     4   ar
     6     4     5   ar
     7     5     6   ar
     8     6    21    1
     9    21    22   am
    10    21    23    2
    11     6     7   ar
    12     7    28    1
    13    28    30    1
    14    30    31   ar
    15    31    32   ar
    16    32    33   ar
    17    33    34    1
    18    33    35   ar
    19    35    36   ar
    20    36    37    1
    21     7     8   ar
    22     8     9   ar
    23     9    10   ar
    24    10    11    1
    25    11    12    1
    26    12    13    1
    27    13    14    1
    28    14    17    1
    29    17    18    1
    30    18    19    1
    31    14    15    1
    32    15    16    1
    33    10     1   ar
    34    16    11    1
    35     8     3   ar
    36    36    30   ar
    37    22    24    1
    38    22    25    1
    39    28    29    1
    40    19    20    1
@<TRIPOS>MOLECULE
*****
 37 40 0 0 0
SMALL
GASTEIGER

@<TRIPOS>ATOM
      1 C         139.0743  138.2440  164.0384 C.ar    1  UNL1        0.1534
      2 C         138.3387  138.2303  165.3454 C.ar    1  UNL1        0.0591
      3 C         138.9035  138.9542  166.5316 C.ar    1  UNL1        0.1072
      4 N         138.1677  138.9405  167.8388 N.ar    1  UNL1       -0.1477
      5 N         138.7326  139.6643  169.0249 N.ar    1  UNL1       -0.1421
      6 C         140.0332  140.4018  168.9040 C.ar    1  UNL1        0.1690
      7 C         140.7689  140.4155  167.5969 C.ar    1  UNL1        0.0740
      8 C         140.2040  139.6917  166.4107 C.ar    1  UNL1        0.0359
      9 C         140.9397  139.7053  165.1036 C.ar    1  UNL1        0.0204
     10 C         140.3749  138.9815  163.9175 C.ar    1  UNL1        0.0825
     11 N         141.1107  138.9952  162.6103 N.pl3   1  UNL1       -0.3023
     12 C         141.9572  137.8220  162.2139 C.3     1  UNL1        0.1082
     13 C         142.6929  137.8357  160.9068 C.3     1  UNL1        0.0939
     14 N         142.5822  139.0225  159.9961 N.3     1  UNL1       -0.2677
     15 C         141.7357  140.1956  160.3926 C.3     1  UNL1        0.0939
     16 C         140.9999  140.1819  161.6997 C.3     1  UNL1        0.1082
     17 C         143.3179  139.0361  158.6891 C.3     1  UNL1        0.1043
     18 C         143.9284  140.3103  158.1853 C.3     1  UNL1        0.1544
     19 O         145.1855  140.2679  157.3682 O.3     1  UNL1       -0.3805
     20 H         145.9168  139.9433  157.9166 H       1  UNL1        0.2105
     21 C         140.5980  141.1257  170.0902 C.2     1  UNL1        0.2635
     22 N         140.5697  140.4820  171.4448 N.am    1  UNL1       -0.3240
     23 O         141.1912  142.4930  169.9217 O.2     1  UNL1       -0.2686
     24 H         140.1804  139.5846  171.5554 H       1  UNL1        0.1453
     25 H         140.9404  140.9571  172.2234 H       1  UNL1        0.1453
     26 C         137.7801  138.2824  161.7860 C.3     1  UNL1        0.2525
     27 O         138.5095  137.5202  162.8522 O.3     1  UNL1       -0.4701
     28 N         142.0694  141.1530  167.4760 N.pl3   1  UNL1       -0.3094
     29 H         142.7741  141.0221  168.1509 H       1  UNL1        0.1523
     30 C         142.2963  142.0899  166.3267 C.ar    1  UNL1        0.0761
     31 C         143.6198  142.1041  165.6207 C.ar    1  UNL1        0.0166
     32 C         143.8467  143.0409  164.4715 C.ar    1  UNL1       -0.0028
     33 C         142.7502  143.9636  164.0281 C.ar    1  UNL1       -0.0195
     34 C         142.9772  144.9004  162.8789 C.3     1  UNL1        0.0311
     35 C         141.4268  143.9494  164.7341 C.ar    1  UNL1        0.0267
     36 C         141.1999  143.0125  165.8834 C.ar    1  UNL1        0.1531
     37 F         139.8765  142.9983  166.5894 F       1  UNL1       -0.2029
@<TRIPOS>BOND
     1    26    27    1
     2    27     1    1
     3     1     2   ar
     4     2     3   ar
     5     3     4   ar
     6     4     5   ar
     7     5     6   ar
     8     6    21    1
     9    21    22   am
    10    21    23    2
    11     6     7   ar
    12     7    28    1
    13    28    30    1
    14    30    31   ar
    15    31    32   ar
    16    32    33   ar
    17    33    34    1
    18    33    35   ar
    19    35    36   ar
    20    36    37    1
    21     7     8   ar
    22     8     9   ar
    23     9    10   ar
    24    10    11    1
    25    11    12    1
    26    12    13    1
    27    13    14    1
    28    14    17    1
    29    17    18    1
    30    18    19    1
    31    14    15    1
    32    15    16    1
    33    10     1   ar
    34    16    11    1
    35     8     3   ar
    36    36    30   ar
    37    22    24    1
    38    22    25    1
    39    28    29    1
    40    19    20    1
@<TRIPOS>MOLECULE
*****
 37 40 0 0 0
SMALL
GASTEIGER

@<TRIPOS>ATOM
      1 C         139.0243  138.1087  164.1201 C.ar    1  UNL1        0.1534
      2 C         138.3139  138.0243  165.4384 C.ar    1  UNL1        0.0591
      3 C         138.7557  138.8848  166.5849 C.ar    1  UNL1        0.1072
      4 N         138.0451  138.8003  167.9033 N.ar    1  UNL1       -0.1477
      5 N         138.4869  139.6608  169.0498 N.ar    1  UNL1       -0.1421
      6 C         139.6392  140.6056  168.8779 C.ar    1  UNL1        0.1690
      7 C         140.3497  140.6900  167.5596 C.ar    1  UNL1        0.0740
      8 C         139.9079  139.8296  166.4131 C.ar    1  UNL1        0.0359
      9 C         140.6184  139.9139  165.0948 C.ar    1  UNL1        0.0204
     10 C         140.1766  139.0535  163.9483 C.ar    1  UNL1        0.0825
     11 N         140.8871  139.1379  162.6299 N.pl3   1  UNL1       -0.3023
     12 C         141.8245  138.0440  162.2117 C.3     1  UNL1        0.1082
     13 C         142.5350  138.1284  160.8934 C.3     1  UNL1        0.0939
     14 N         142.3082  139.3067  159.9932 N.3     1  UNL1       -0.2677
     15 C         141.3709  140.4006  160.4113 C.3     1  UNL1        0.0939
     16 C         140.6603  140.3161  161.7297 C.3     1  UNL1        0.1082
     17 C         143.0187  139.3911  158.6748 C.3     1  UNL1        0.1043
     18 C         144.0281  140.4743  158.4348 C.3     1  UNL1        0.1544
     19 O         145.1300  140.2654  157.4388 O.3     1  UNL1       -0.3805
     20 H         145.7191  139.5610  157.7513 H       1  UNL1        0.2105
     21 C         140.0810  141.4661  170.0244 C.2     1  UNL1        0.2635
     22 N         140.3783  140.8451  171.3572 N.am    1  UNL1       -0.3240
     23 O         140.2255  142.9474  169.8383 O.2     1  UNL1       -0.2686
     24 H         140.2835  139.8728  171.4793 H       1  UNL1        0.1453
     25 H         140.6683  141.4098  172.1096 H       1  UNL1        0.1453
     26 C         137.8228  137.8536  161.8308 C.3     1  UNL1        0.2525
     27 O         138.5826  137.2482  162.9736 O.3     1  UNL1       -0.4701
     28 N         141.5019  141.6348  167.3878 N.pl3   1  UNL1       -0.3094
     29 H         142.2583  141.6084  168.0173 H       1  UNL1        0.1523
     30 C         141.5018  142.6201  166.2566 C.ar    1  UNL1        0.0761
     31 C         140.2459  143.3633  165.9096 C.ar    1  UNL1        0.0166
     32 C         140.2457  144.3484  164.7785 C.ar    1  UNL1       -0.0028
     33 C         141.5014  144.5905  163.9944 C.ar    1  UNL1       -0.0195
     34 C         141.5011  145.5756  162.8633 C.3     1  UNL1        0.0311
     35 C         142.7572  143.8473  164.3414 C.ar    1  UNL1        0.0267
     36 C         142.7574  142.8621  165.4726 C.ar    1  UNL1        0.1531
     37 F         144.0133  142.1189  165.8196 F       1  UNL1       -0.2029
@<TRIPOS>BOND
     1    26    27    1
     2    27     1    1
     3     1     2   ar
     4     2     3   ar
     5     3     4   ar
     6     4     5   ar
     7     5     6   ar
     8     6    21    1
     9    21    22   am
    10    21    23    2
    11     6     7   ar
    12     7    28    1
    13    28    30    1
    14    30    31   ar
    15    31    32   ar
    16    32    33   ar
    17    33    34    1
    18    33    35   ar
    19    35    36   ar
    20    36    37    1
    21     7     8   ar
    22     8     9   ar
    23     9    10   ar
    24    10    11    1
    25    11    12    1
    26    12    13    1
    27    13    14    1
    28    14    17    1
    29    17    18    1
    30    18    19    1
    31    14    15    1
    32    15    16    1
    33    10     1   ar
    34    16    11    1
    35     8     3   ar
    36    36    30   ar
    37    22    24    1
    38    22    25    1
    39    28    29    1
    40    19    20    1
@<TRIPOS>MOLECULE
*****
 37 40 0 0 0
SMALL
GASTEIGER

@<TRIPOS>ATOM
      1 C         139.3953  138.3245  162.9911 C.ar    1  UNL1        0.1534
      2 C         139.2655  138.0314  161.5258 C.ar    1  UNL1        0.0591
      3 C         138.9600  139.1406  160.5632 C.ar    1  UNL1        0.1072
      4 N         138.8301  138.8474  159.0979 N.ar    1  UNL1       -0.1477
      5 N         138.5246  139.9565  158.1353 N.ar    1  UNL1       -0.1421
      6 C         138.3490  141.3588  158.6382 C.ar    1  UNL1        0.1690
      7 C         138.4788  141.6519  160.1035 C.ar    1  UNL1        0.0740
      8 C         138.7843  140.5428  161.0660 C.ar    1  UNL1        0.0359
      9 C         138.9142  140.8359  162.5313 C.ar    1  UNL1        0.0204
     10 C         139.2197  139.7267  163.4939 C.ar    1  UNL1        0.0825
     11 N         139.3495  140.0199  164.9593 N.pl3   1  UNL1       -0.3023
     12 C         138.5466  139.2363  165.9549 C.3     1  UNL1        0.1082
     13 C         138.6764  139.5294  167.4202 C.3     1  UNL1        0.0939
     14 N         139.6092  140.6062  167.8899 N.3     1  UNL1       -0.2677
     15 C         140.4122  141.3898  166.8943 C.3     1  UNL1        0.0939
     16 C         140.2823  141.0966  165.4289 C.3     1  UNL1        0.1082
     17 C         139.7390  140.8993  169.3553 C.3     1  UNL1        0.1043
     18 C         140.4480  139.9300  170.2541 C.3     1  UNL1        0.1544
     19 O         139.7205  139.3081  171.4090 O.3     1  UNL1       -0.3805
     20 H         139.4947  139.9944  172.0563 H       1  UNL1        0.2105
     21 C         138.0434  142.4680  157.6756 C.2     1  UNL1        0.2635
     22 N         136.8172  142.3973  156.8146 N.am    1  UNL1       -0.3240
     23 O         138.9641  143.6478  157.5741 O.2     1  UNL1       -0.2686
     24 H         136.2129  141.6229  156.8812 H       1  UNL1        0.1453
     25 H         136.6166  143.1252  156.1828 H       1  UNL1        0.1453
     26 C         141.1181  136.9507  164.3675 C.3     1  UNL1        0.2525
     27 O         139.7009  137.2154  163.9536 O.3     1  UNL1       -0.4701
     28 N         138.3032  143.0542  160.6063 N.pl3   1  UNL1       -0.3094
     29 H         137.4813  143.5534  160.3953 H       1  UNL1        0.1523
     30 C         139.3798  143.6958  161.4305 C.ar    1  UNL1        0.0761
     31 C         140.8054  143.6535  160.9661 C.ar    1  UNL1        0.0166
     32 C         141.8820  144.2951  161.7902 C.ar    1  UNL1       -0.0028
     33 C         141.5330  144.9791  163.0788 C.ar    1  UNL1       -0.0195
     34 C         142.6096  145.6207  163.9030 C.3     1  UNL1        0.0311
     35 C         140.1073  145.0213  163.5433 C.ar    1  UNL1        0.0267
     36 C         139.0307  144.3797  162.7190 C.ar    1  UNL1        0.1531
     37 F         137.6050  144.4220  163.1834 F       1  UNL1       -0.2029
@<TRIPOS>BOND
     1    26    27    1
     2    27     1    1
     3     1     2   ar
     4     2     3   ar
     5     3     4   ar
     6     4     5   ar
     7     5     6   ar
     8     6    21    1
     9    21    22   am
    10    21    23    2
    11     6     7   ar
    12     7    28    1
    13    28    30    1
    14    30    31   ar
    15    31    32   ar
    16    32    33   ar
    17    33    34    1
    18    33    35   ar
    19    35    36   ar
    20    36    37    1
    21     7     8   ar
    22     8     9   ar
    23     9    10   ar
    24    10    11    1
    25    11    12    1
    26    12    13    1
    27    13    14    1
    28    14    17    1
    29    17    18    1
    30    18    19    1
    31    14    15    1
    32    15    16    1
    33    10     1   ar
    34    16    11    1
    35     8     3   ar
    36    36    30   ar
    37    22    24    1
    38    22    25    1
    39    28    29    1
    40    19    20    1
@<TRIPOS>MOLECULE
*****
 37 40 0 0 0
SMALL
GASTEIGER

@<TRIPOS>ATOM
      1 C         144.1472  139.8700  162.9026 C.ar    1  UNL1        0.1534
      2 C         144.3527  139.5513  161.4514 C.ar    1  UNL1        0.0591
      3 C         143.1702  139.2935  160.5653 C.ar    1  UNL1        0.1072
      4 N         143.3758  138.9747  159.1140 N.ar    1  UNL1       -0.1477
      5 N         142.1933  138.7170  158.2279 N.ar    1  UNL1       -0.1421
      6 C         140.8051  138.7779  158.7932 C.ar    1  UNL1        0.1690
      7 C         140.5996  139.0967  160.2444 C.ar    1  UNL1        0.0740
      8 C         141.7821  139.3545  161.1305 C.ar    1  UNL1        0.0359
      9 C         141.5765  139.6732  162.5817 C.ar    1  UNL1        0.0204
     10 C         142.7591  139.9310  163.4678 C.ar    1  UNL1        0.0825
     11 N         142.5534  140.2497  164.9191 N.pl3   1  UNL1       -0.3023
     12 C         142.6536  139.1622  165.9473 C.3     1  UNL1        0.1082
     13 C         142.4480  139.4809  167.3985 C.3     1  UNL1        0.0939
     14 N         142.1422  140.8872  167.8216 N.3     1  UNL1       -0.2677
     15 C         142.0420  141.9747  166.7934 C.3     1  UNL1        0.0939
     16 C         142.2477  141.6560  165.3421 C.3     1  UNL1        0.1082
     17 C         141.9366  141.2059  169.2728 C.3     1  UNL1        0.1043
     18 C         142.7169  140.4686  170.3205 C.3     1  UNL1        0.1544
     19 O         142.3533  140.6153  171.7683 O.3     1  UNL1       -0.3805
     20 H         142.5209  141.5273  172.0530 H       1  UNL1        0.2105
     21 C         139.6226  138.5201  157.9071 C.2     1  UNL1        0.2635
     22 N         139.5670  137.2738  157.0742 N.am    1  UNL1       -0.3240
     23 O         138.4956  139.5086  157.8538 O.2     1  UNL1       -0.2686
     24 H         140.3067  136.6250  157.1092 H       1  UNL1        0.1453
     25 H         138.7909  137.1046  156.4926 H       1  UNL1        0.1453
     26 C         145.8740  141.5187  163.9274 C.3     1  UNL1        0.2525
     27 O         145.3297  140.1278  163.7887 O.3     1  UNL1       -0.4701
     28 N         139.2115  139.1576  160.8095 N.pl3   1  UNL1       -0.3094
     29 H         138.6040  138.3897  160.7068 H       1  UNL1        0.1523
     30 C         138.7488  140.3886  161.5312 C.ar    1  UNL1        0.0761
     31 C         138.8191  141.7255  160.8547 C.ar    1  UNL1        0.0166
     32 C         138.3565  142.9565  161.5762 C.ar    1  UNL1       -0.0028
     33 C         137.8237  142.8506  162.9744 C.ar    1  UNL1       -0.0195
     34 C         137.3611  144.0815  163.6960 C.3     1  UNL1        0.0311
     35 C         137.7534  141.5136  163.6510 C.ar    1  UNL1        0.0267
     36 C         138.2160  140.2827  162.9293 C.ar    1  UNL1        0.1531
     37 F         138.1458  138.9457  163.6059 F       1  UNL1       -0.2029
@<TRIPOS>BOND
     1    26    27    1
     2    27     1    1
     3     1     2   ar
     4     2     3   ar
     5     3     4   ar
     6     4     5   ar
     7     5     6   ar
     8     6    21    1
     9    21    22   am
    10    21    23    2
    11     6     7   ar
    12     7    28    1
    13    28    30    1
    14    30    31   ar
    15    31    32   ar
    16    32    33   ar
    17    33    34    1
    18    33    35   ar
    19    35    36   ar
    20    36    37    1
    21     7     8   ar
    22     8     9   ar
    23     9    10   ar
    24    10    11    1
    25    11    12    1
    26    12    13    1
    27    13    14    1
    28    14    17    1
    29    17    18    1
    30    18    19    1
    31    14    15    1
    32    15    16    1
    33    10     1   ar
    34    16    11    1
    35     8     3   ar
    36    36    30   ar
    37    22    24    1
    38    22    25    1
    39    28    29    1
    40    19    20    1
@<TRIPOS>MOLECULE
*****
 37 40 0 0 0
SMALL
GASTEIGER

@<TRIPOS>ATOM
      1 C         143.7678  142.3045  164.6545 C.ar    1  UNL1        0.1534
      2 C         143.6309  142.7130  166.0912 C.ar    1  UNL1        0.0591
      3 C         142.6281  142.0297  166.9730 C.ar    1  UNL1        0.1072
      4 N         142.4912  142.4383  168.4098 N.ar    1  UNL1       -0.1477
      5 N         141.4884  141.7550  169.2916 N.ar    1  UNL1       -0.1421
      6 C         140.6225  140.6631  168.7364 C.ar    1  UNL1        0.1690
      7 C         140.7594  140.2546  167.2997 C.ar    1  UNL1        0.0740
      8 C         141.7622  140.9379  166.4179 C.ar    1  UNL1        0.0359
      9 C         141.8991  140.5294  164.9812 C.ar    1  UNL1        0.0204
     10 C         142.9019  141.2127  164.0994 C.ar    1  UNL1        0.0825
     11 N         143.0388  140.8042  162.6626 N.pl3   1  UNL1       -0.3023
     12 C         142.1894  141.4575  161.6130 C.3     1  UNL1        0.1082
     13 C         142.3262  141.0490  160.1762 C.3     1  UNL1        0.0939
     14 N         143.3125  139.9871  159.7890 N.3     1  UNL1       -0.2677
     15 C         144.1619  139.3338  160.8386 C.3     1  UNL1        0.0939
     16 C         144.0250  139.7424  162.2755 C.3     1  UNL1        0.1082
     17 C         143.4493  139.5786  158.3522 C.3     1  UNL1        0.1043
     18 C         144.2234  140.4393  157.3982 C.3     1  UNL1        0.1544
     19 O         145.3865  139.8652  156.6449 O.3     1  UNL1       -0.3805
     20 H         146.0940  139.6364  157.2678 H       1  UNL1        0.2105
     21 C         139.6197  139.9798  169.6182 C.2     1  UNL1        0.2635
     22 N         139.9413  139.7227  171.0606 N.am    1  UNL1       -0.3240
     23 O         138.2953  139.5535  169.0576 O.2     1  UNL1       -0.2686
     24 H         140.8105  140.0025  171.4286 H       1  UNL1        0.1453
     25 H         139.2831  139.2742  171.6394 H       1  UNL1        0.1453
     26 C         144.3482  144.1385  162.9081 C.3     1  UNL1        0.2525
     27 O         144.7706  142.9878  163.7727 O.3     1  UNL1       -0.4701
     28 N         139.8935  139.1628  166.7447 N.pl3   1  UNL1       -0.3094
     29 H         139.7236  138.3513  167.2756 H       1  UNL1        0.1523
     30 C         139.2863  139.3073  165.3806 C.ar    1  UNL1        0.0761
     31 C         138.4104  140.4848  165.0705 C.ar    1  UNL1        0.0166
     32 C         137.8032  140.6294  163.7065 C.ar    1  UNL1       -0.0028
     33 C         138.0721  139.5964  162.6526 C.ar    1  UNL1       -0.0195
     34 C         137.4649  139.7409  161.2886 C.3     1  UNL1        0.0311
     35 C         138.9480  138.4189  162.9627 C.ar    1  UNL1        0.0267
     36 C         139.5552  138.2743  164.3267 C.ar    1  UNL1        0.1531
     37 F         140.4311  137.0968  164.6368 F       1  UNL1       -0.2029
@<TRIPOS>BOND
     1    26    27    1
     2    27     1    1
     3     1     2   ar
     4     2     3   ar
     5     3     4   ar
     6     4     5   ar
     7     5     6   ar
     8     6    21    1
     9    21    22   am
    10    21    23    2
    11     6     7   ar
    12     7    28    1
    13    28    30    1
    14    30    31   ar
    15    31    32   ar
    16    32    33   ar
    17    33    34    1
    18    33    35   ar
    19    35    36   ar
    20    36    37    1
    21     7     8   ar
    22     8     9   ar
    23     9    10   ar
    24    10    11    1
    25    11    12    1
    26    12    13    1
    27    13    14    1
    28    14    17    1
    29    17    18    1
    30    18    19    1
    31    14    15    1
    32    15    16    1
    33    10     1   ar
    34    16    11    1
    35     8     3   ar
    36    36    30   ar
    37    22    24    1
    38    22    25    1
    39    28    29    1
    40    19    20    1
@<TRIPOS>MOLECULE
*****
 37 40 0 0 0
SMALL
GASTEIGER

@<TRIPOS>ATOM
      1 C         143.3490  143.4966  164.1841 C.ar    1  UNL1        0.1534
      2 C         143.7762  143.0500  165.5508 C.ar    1  UNL1        0.0591
      3 C         142.7936  142.3730  166.4598 C.ar    1  UNL1        0.1072
      4 N         143.2209  141.9264  167.8266 N.ar    1  UNL1       -0.1477
      5 N         142.2384  141.2494  168.7356 N.ar    1  UNL1       -0.1421
      6 C         140.8285  141.0192  168.2779 C.ar    1  UNL1        0.1690
      7 C         140.4013  141.4658  166.9112 C.ar    1  UNL1        0.0740
      8 C         141.3839  142.1428  166.0021 C.ar    1  UNL1        0.0359
      9 C         140.9567  142.5894  164.6354 C.ar    1  UNL1        0.0204
     10 C         141.9392  143.2664  163.7264 C.ar    1  UNL1        0.0825
     11 N         141.5120  143.7130  162.3596 N.pl3   1  UNL1       -0.3023
     12 C         141.6148  142.7713  161.1966 C.3     1  UNL1        0.1082
     13 C         141.1876  143.2179  159.8299 C.3     1  UNL1        0.0939
     14 N         140.6575  144.6063  159.6261 N.3     1  UNL1       -0.2677
     15 C         140.5547  145.5480  160.7891 C.3     1  UNL1        0.0939
     16 C         140.9819  145.1014  162.1559 C.3     1  UNL1        0.1082
     17 C         140.2302  145.0529  158.2594 C.3     1  UNL1        0.1043
     18 C         141.1542  145.8835  157.4189 C.3     1  UNL1        0.1544
     19 O         142.5175  146.2409  157.9322 O.3     1  UNL1       -0.3805
     20 H         142.4303  146.8241  158.7024 H       1  UNL1        0.2105
     21 C         139.8460  140.3423  169.1869 C.2     1  UNL1        0.2635
     22 N         139.9216  140.5609  170.6690 N.am    1  UNL1       -0.3240
     23 O         138.7878  139.4467  168.6139 O.2     1  UNL1       -0.2686
     24 H         140.6161  141.1487  171.0451 H       1  UNL1        0.1453
     25 H         139.2767  140.1166  171.2657 H       1  UNL1        0.1453
     26 C         144.8975  143.4345  162.0988 C.3     1  UNL1        0.2525
     27 O         144.3316  144.1736  163.2750 O.3     1  UNL1       -0.4701
     28 N         138.9916  141.2356  166.4535 N.pl3   1  UNL1       -0.3094
     29 H         138.2394  141.5997  166.9740 H       1  UNL1        0.1523
     30 C         138.7278  140.4505  165.2028 C.ar    1  UNL1        0.0761
     31 C         139.2425  139.0473  165.0756 C.ar    1  UNL1        0.0166
     32 C         138.9788  138.2622  163.8250 C.ar    1  UNL1       -0.0028
     33 C         138.2003  138.8803  162.7015 C.ar    1  UNL1       -0.0195
     34 C         137.9366  138.0952  161.4509 C.3     1  UNL1        0.0311
     35 C         137.6856  140.2835  162.8288 C.ar    1  UNL1        0.0267
     36 C         137.9494  141.0686  164.0795 C.ar    1  UNL1        0.1531
     37 F         137.4347  142.4718  164.2067 F       1  UNL1       -0.2029
@<TRIPOS>BOND
     1    26    27    1
     2    27     1    1
     3     1     2   ar
     4     2     3   ar
     5     3     4   ar
     6     4     5   ar
     7     5     6   ar
     8     6    21    1
     9    21    22   am
    10    21    23    2
    11     6     7   ar
    12     7    28    1
    13    28    30    1
    14    30    31   ar
    15    31    32   ar
    16    32    33   ar
    17    33    34    1
    18    33    35   ar
    19    35    36   ar
    20    36    37    1
    21     7     8   ar
    22     8     9   ar
    23     9    10   ar
    24    10    11    1
    25    11    12    1
    26    12    13    1
    27    13    14    1
    28    14    17    1
    29    17    18    1
    30    18    19    1
    31    14    15    1
    32    15    16    1
    33    10     1   ar
    34    16    11    1
    35     8     3   ar
    36    36    30   ar
    37    22    24    1
    38    22    25    1
    39    28    29    1
    40    19    20    1
@<TRIPOS>MOLECULE
*****
 37 40 0 0 0
SMALL
GASTEIGER

@<TRIPOS>ATOM
      1 C         138.5694  140.8141  162.2696 C.ar    1  UNL1        0.1534
      2 C         138.1270  141.2369  160.9001 C.ar    1  UNL1        0.0591
      3 C         138.8284  142.3627  160.1997 C.ar    1  UNL1        0.1072
      4 N         138.3861  142.7855  158.8301 N.ar    1  UNL1       -0.1477
      5 N         139.0875  143.9113  158.1297 N.ar    1  UNL1       -0.1421
      6 C         140.2312  144.6143  158.7988 C.ar    1  UNL1        0.1690
      7 C         140.6735  144.1915  160.1683 C.ar    1  UNL1        0.0740
      8 C         139.9721  143.0657  160.8688 C.ar    1  UNL1        0.0359
      9 C         140.4144  142.6429  162.2382 C.ar    1  UNL1        0.0204
     10 C         139.7131  141.5171  162.9387 C.ar    1  UNL1        0.0825
     11 N         140.1554  141.0943  164.3082 N.pl3   1  UNL1       -0.3023
     12 C         139.5261  141.7096  165.5229 C.3     1  UNL1        0.1082
     13 C         139.9684  141.2868  166.8924 C.3     1  UNL1        0.0939
     14 N         141.0401  140.2487  167.0473 N.3     1  UNL1       -0.2677
     15 C         141.6694  139.6334  165.8327 C.3     1  UNL1        0.0939
     16 C         141.2270  140.0562  164.4631 C.3     1  UNL1        0.1082
     17 C         141.4824  139.8260  168.4168 C.3     1  UNL1        0.1043
     18 C         142.7041  140.4402  169.0333 C.3     1  UNL1        0.1544
     19 O         143.2936  139.8487  170.2794 O.3     1  UNL1       -0.3805
     20 H         142.6697  139.9556  171.0144 H       1  UNL1        0.2105
     21 C         140.9326  145.7401  158.0984 C.2     1  UNL1        0.2635
     22 N         140.1521  146.6932  157.2425 N.am    1  UNL1       -0.3240
     23 O         142.4145  145.9129  158.2538 O.2     1  UNL1       -0.2686
     24 H         139.1795  146.5798  157.1406 H       1  UNL1        0.1453
     25 H         140.6124  147.4321  156.7828 H       1  UNL1        0.1453
     26 C         138.3591  138.2806  162.8054 C.3     1  UNL1        0.2525
     27 O         137.8680  139.6882  162.9700 O.3     1  UNL1       -0.4701
     28 N         141.8172  144.8945  160.8374 N.pl3   1  UNL1       -0.3094
     29 H         141.8809  145.8762  160.8005 H       1  UNL1        0.1523
     30 C         142.8639  144.1017  161.5627 C.ar    1  UNL1        0.0761
     31 C         143.6000  143.0046  160.8523 C.ar    1  UNL1        0.0166
     32 C         144.6466  142.2118  161.5775 C.ar    1  UNL1       -0.0028
     33 C         144.9573  142.5161  163.0132 C.ar    1  UNL1       -0.0195
     34 C         146.0039  141.7233  163.7384 C.3     1  UNL1        0.0311
     35 C         144.2212  143.6132  163.7235 C.ar    1  UNL1        0.0267
     36 C         143.1745  144.4060  162.9982 C.ar    1  UNL1        0.1531
     37 F         142.4385  145.5031  163.7086 F       1  UNL1       -0.2029
@<TRIPOS>BOND
     1    26    27    1
     2    27     1    1
     3     1     2   ar
     4     2     3   ar
     5     3     4   ar
     6     4     5   ar
     7     5     6   ar
     8     6    21    1
     9    21    22   am
    10    21    23    2
    11     6     7   ar
    12     7    28    1
    13    28    30    1
    14    30    31   ar
    15    31    32   ar
    16    32    33   ar
    17    33    34    1
    18    33    35   ar
    19    35    36   ar
    20    36    37    1
    21     7     8   ar
    22     8     9   ar
    23     9    10   ar
    24    10    11    1
    25    11    12    1
    26    12    13    1
    27    13    14    1
    28    14    17    1
    29    17    18    1
    30    18    19    1
    31    14    15    1
    32    15    16    1
    33    10     1   ar
    34    16    11    1
    35     8     3   ar
    36    36    30   ar
    37    22    24    1
    38    22    25    1
    39    28    29    1
    40    19    20    1
@<TRIPOS>MOLECULE
*****
 37 40 0 0 0
SMALL
GASTEIGER

@<TRIPOS>ATOM
      1 C         139.2877  138.4373  163.9692 C.ar    1  UNL1        0.1534
      2 C         138.9178  138.4497  165.4228 C.ar    1  UNL1        0.0591
      3 C         139.4507  139.5245  166.3232 C.ar    1  UNL1        0.1072
      4 N         139.0808  139.5368  167.7769 N.ar    1  UNL1       -0.1477
      5 N         139.6136  140.6117  168.6773 N.ar    1  UNL1       -0.1421
      6 C         140.5164  141.6743  168.1240 C.ar    1  UNL1        0.1690
      7 C         140.8862  141.6619  166.6704 C.ar    1  UNL1        0.0740
      8 C         140.3534  140.5871  165.7700 C.ar    1  UNL1        0.0359
      9 C         140.7232  140.5747  164.3164 C.ar    1  UNL1        0.0204
     10 C         140.1904  139.4999  163.4160 C.ar    1  UNL1        0.0825
     11 N         140.5603  139.4876  161.9623 N.pl3   1  UNL1       -0.3023
     12 C         139.8993  140.4416  161.0121 C.3     1  UNL1        0.1082
     13 C         140.2691  140.4294  159.5585 C.3     1  UNL1        0.0939
     14 N         141.3001  139.4630  159.0550 N.3     1  UNL1       -0.2677
     15 C         141.9611  138.5090  160.0052 C.3     1  UNL1        0.0939
     16 C         141.5912  138.5213  161.4589 C.3     1  UNL1        0.1082
     17 C         141.6699  139.4508  157.6014 C.3     1  UNL1        0.1043
     18 C         143.0716  139.1137  157.1870 C.3     1  UNL1        0.1544
     19 O         143.4507  137.6884  156.9139 O.3     1  UNL1       -0.3805
     20 H         143.3969  137.1763  157.7360 H       1  UNL1        0.2105
     21 C         141.0492  142.7491  169.0244 C.2     1  UNL1        0.2635
     22 N         140.1144  143.7586  169.6220 N.am    1  UNL1       -0.3240
     23 O         142.5169  142.8145  169.3272 O.2     1  UNL1       -0.2686
     24 H         139.1511  143.7157  169.4232 H       1  UNL1        0.1453
     25 H         140.4641  144.4641  170.2130 H       1  UNL1        0.1453
     26 C         137.7805  137.7090  161.9823 C.3     1  UNL1        0.2525
     27 O         138.7548  137.3625  163.0688 O.3     1  UNL1       -0.4701
     28 N         141.7890  142.7245  166.1172 N.pl3   1  UNL1       -0.3094
     29 H         142.6888  142.8519  166.4957 H       1  UNL1        0.1523
     30 C         141.3206  143.5929  164.9873 C.ar    1  UNL1        0.0761
     31 C         142.2337  143.8770  163.8316 C.ar    1  UNL1        0.0166
     32 C         141.7655  144.7453  162.7017 C.ar    1  UNL1       -0.0028
     33 C         140.3841  145.3296  162.7275 C.ar    1  UNL1       -0.0195
     34 C         139.9159  146.1979  161.5976 C.3     1  UNL1        0.0311
     35 C         139.4711  145.0455  163.8831 C.ar    1  UNL1        0.0267
     36 C         139.9394  144.1771  165.0131 C.ar    1  UNL1        0.1531
     37 F         139.0263  143.8929  166.1688 F       1  UNL1       -0.2029
@<TRIPOS>BOND
     1    26    27    1
     2    27     1    1
     3     1     2   ar
     4     2     3   ar
     5     3     4   ar
     6     4     5   ar
     7     5     6   ar
     8     6    21    1
     9    21    22   am
    10    21    23    2
    11     6     7   ar
    12     7    28    1
    13    28    30    1
    14    30    31   ar
    15    31    32   ar
    16    32    33   ar
    17    33    34    1
    18    33    35   ar
    19    35    36   ar
    20    36    37    1
    21     7     8   ar
    22     8     9   ar
    23     9    10   ar
    24    10    11    1
    25    11    12    1
    26    12    13    1
    27    13    14    1
    28    14    17    1
    29    17    18    1
    30    18    19    1
    31    14    15    1
    32    15    16    1
    33    10     1   ar
    34    16    11    1
    35     8     3   ar
    36    36    30   ar
    37    22    24    1
    38    22    25    1
    39    28    29    1
    40    19    20    1
