@<TRIPOS>MOLECULE
*****
 42 46 0 0 0
SMALL
GASTEIGER

@<TRIPOS>ATOM
      1 C         142.3946  140.9545  168.7114 C.ar    1  UNL1        0.2167
      2 N         142.9835  139.5934  168.4870 N.ar    1  UNL1       -0.2182
      3 C         143.1646  139.0754  167.0909 C.ar    1  UNL1        0.0638
      4 C         143.7536  137.7142  166.8665 C.3     1  UNL1        0.0522
      5 C         142.7569  139.9187  165.9194 C.ar    1  UNL1        0.0344
      6 C         142.9380  139.4007  164.5233 C.ar    1  UNL1        0.0029
      7 C         142.5303  140.2439  163.3517 C.ar    1  UNL1        0.0047
      8 C         141.9413  141.6052  163.5761 C.ar    1  UNL1        0.0385
      9 C         141.7601  142.1231  164.9722 C.ar    1  UNL1        0.1560
     10 C         142.1679  141.2798  166.1438 C.ar    1  UNL1        0.1191
     11 N         141.9868  141.7977  167.5398 N.ar    1  UNL1       -0.2107
     12 C         142.7114  139.7260  161.9557 C.ar    1  UNL1        0.0208
     13 C         142.5252  138.2657  161.6674 C.ar    1  UNL1        0.1021
     14 N         142.7064  137.7478  160.2714 N.ar    1  UNL1       -0.2090
     15 C         143.0737  138.6901  159.1636 C.ar    1  UNL1        0.2400
     16 C         143.2599  140.1503  159.4519 C.ar    1  UNL1        0.1178
     17 C         143.0788  140.6682  160.8479 C.ar    1  UNL1        0.0221
     18 O         143.2549  138.1722  157.7676 O.3     1  UNL1       -0.4553
     19 C         142.0718  138.0504  156.8534 C.3     1  UNL1        0.2543
     20 N         143.6273  141.0926  158.3441 N.pl3   1  UNL1       -0.2104
     21 H         144.4043  140.8997  157.7712 H       1  UNL1        0.1739
     22 S         142.8106  142.3287  158.1092 S.O2    1  UNL1        0.0759
     23 O         143.9696  143.1767  158.5424 O.2     1  UNL1       -0.1499
     24 O         141.6516  141.4808  157.6759 O.2     1  UNL1       -0.1499
     25 C         141.9940  143.5648  157.8742 C.ar    1  UNL1        0.1526
     26 C         142.0970  144.2946  156.5678 C.ar    1  UNL1        0.0248
     27 C         141.2804  145.5307  156.3328 C.ar    1  UNL1        0.0312
     28 C         140.3609  146.0371  157.4043 C.ar    1  UNL1        0.1425
     29 F         139.5443  147.2732  157.1694 F       1  UNL1       -0.2041
     30 C         140.2579  145.3073  158.7107 C.ar    1  UNL1        0.0606
     31 C         141.0745  144.0711  158.9457 C.ar    1  UNL1        0.1611
     32 F         140.9715  143.3413  160.2521 F       1  UNL1       -0.2027
     33 C         141.2192  140.8243  171.0248 C.3     1  UNL1        0.1108
     34 N         142.2134  141.4724  170.1075 N.pl3   1  UNL1       -0.3013
     35 H         142.7470  142.2378  170.4217 H       1  UNL1        0.1497
     36 O         141.1712  143.4842  165.1966 O.3     1  UNL1       -0.4775
     37 C         140.2369  144.0738  164.1820 C.3     1  UNL1        0.1710
     38 C         140.7170  145.1542  163.2588 C.3     1  UNL1        0.0756
     39 C         139.7827  145.7437  162.2442 C.3     1  UNL1        0.1459
     40 O         138.3682  145.2529  162.1528 O.3     1  UNL1       -0.3535
     41 C         137.8881  144.1725  163.0759 C.3     1  UNL1        0.1459
     42 C         138.8224  143.5830  164.0905 C.3     1  UNL1        0.0756
@<TRIPOS>BOND
     1    33    34    1
     2    34     1    1
     3     1     2   ar
     4     2     3   ar
     5     3     4    1
     6     3     5   ar
     7     5     6   ar
     8     6     7   ar
     9     7    12    1
    10    12    13   ar
    11    13    14   ar
    12    14    15   ar
    13    15    18    1
    14    18    19    1
    15    15    16   ar
    16    16    20    1
    17    20    22    1
    18    22    23    2
    19    22    24    2
    20    22    25    1
    21    25    26   ar
    22    26    27   ar
    23    27    28   ar
    24    28    29    1
    25    28    30   ar
    26    30    31   ar
    27    31    32    1
    28    16    17   ar
    29     7     8   ar
    30     8     9   ar
    31     9    36    1
    32    36    37    1
    33    37    38    1
    34    38    39    1
    35    39    40    1
    36    40    41    1
    37    41    42    1
    38     9    10   ar
    39    10    11   ar
    40    11     1   ar
    41    10     5   ar
    42    17    12   ar
    43    42    37    1
    44    31    25   ar
    45    34    35    1
    46    20    21    1
@<TRIPOS>MOLECULE
*****
 42 46 0 0 0
SMALL
GASTEIGER

@<TRIPOS>ATOM
      1 C         140.8075  145.3283  157.6027 C.ar    1  UNL1        0.2167
      2 N         139.6322  144.4867  157.2022 N.ar    1  UNL1       -0.2182
      3 C         139.2001  143.3412  158.0688 C.ar    1  UNL1        0.0638
      4 C         138.0247  142.4995  157.6684 C.3     1  UNL1        0.0522
      5 C         139.9432  143.0372  159.3358 C.ar    1  UNL1        0.0344
      6 C         139.5110  141.8917  160.2024 C.ar    1  UNL1        0.0029
      7 C         140.2541  141.5878  161.4694 C.ar    1  UNL1        0.0047
      8 C         141.4295  142.4294  161.8699 C.ar    1  UNL1        0.0385
      9 C         141.8616  143.5749  161.0033 C.ar    1  UNL1        0.1560
     10 C         141.1185  143.8788  159.7363 C.ar    1  UNL1        0.1191
     11 N         141.5506  145.0244  158.8697 N.ar    1  UNL1       -0.2107
     12 C         139.8220  140.4422  162.3360 C.ar    1  UNL1        0.0208
     13 C         138.4817  139.8035  162.1216 C.ar    1  UNL1        0.1021
     14 N         138.0496  138.6580  162.9882 N.ar    1  UNL1       -0.2090
     15 C         138.9576  138.1512  164.0692 C.ar    1  UNL1        0.2400
     16 C         140.2978  138.7899  164.2837 C.ar    1  UNL1        0.1178
     17 C         140.7299  139.9354  163.4171 C.ar    1  UNL1        0.0221
     18 O         138.5255  137.0056  164.9358 O.3     1  UNL1       -0.4553
     19 C         137.9495  137.2695  166.2955 C.3     1  UNL1        0.2543
     20 N         141.2058  138.2831  165.3647 N.pl3   1  UNL1       -0.2104
     21 H         141.4338  137.3263  165.4076 H       1  UNL1        0.1739
     22 S         141.7663  139.2340  166.3804 S.O2    1  UNL1        0.0759
     23 O         143.1557  138.9090  165.9178 O.2     1  UNL1       -0.1499
     24 O         140.3769  139.5590  166.8430 O.2     1  UNL1       -0.1499
     25 C         142.3269  140.1848  167.3960 C.ar    1  UNL1        0.1526
     26 C         142.5212  139.7381  168.8148 C.ar    1  UNL1        0.0248
     27 C         143.0817  140.6889  169.8304 C.ar    1  UNL1        0.0312
     28 C         143.4480  142.0866  169.4274 C.ar    1  UNL1        0.1425
     29 F         144.0086  143.0374  170.4431 F       1  UNL1       -0.2041
     30 C         143.2538  142.5334  168.0088 C.ar    1  UNL1        0.0606
     31 C         142.6932  141.5825  166.9931 C.ar    1  UNL1        0.1611
     32 F         142.4989  142.0293  165.5744 F       1  UNL1       -0.2027
     33 C         140.4021  146.8829  155.5609 C.3     1  UNL1        0.1108
     34 N         141.2397  146.4738  156.7361 N.pl3   1  UNL1       -0.3013
     35 H         142.0731  146.9572  156.9386 H       1  UNL1        0.1497
     36 O         143.0369  144.4165  161.4037 O.3     1  UNL1       -0.4775
     37 C         143.7709  144.1219  162.6784 C.3     1  UNL1        0.1710
     38 C         143.6109  145.0284  163.8627 C.3     1  UNL1        0.0756
     39 C         144.3448  144.7337  165.1372 C.3     1  UNL1        0.1459
     40 O         145.2388  143.5326  165.2274 O.3     1  UNL1       -0.3535
     41 C         145.3988  142.6261  164.0431 C.3     1  UNL1        0.1459
     42 C         144.6648  142.9208  162.7686 C.3     1  UNL1        0.0756
@<TRIPOS>BOND
     1    33    34    1
     2    34     1    1
     3     1     2   ar
     4     2     3   ar
     5     3     4    1
     6     3     5   ar
     7     5     6   ar
     8     6     7   ar
     9     7    12    1
    10    12    13   ar
    11    13    14   ar
    12    14    15   ar
    13    15    18    1
    14    18    19    1
    15    15    16   ar
    16    16    20    1
    17    20    22    1
    18    22    23    2
    19    22    24    2
    20    22    25    1
    21    25    26   ar
    22    26    27   ar
    23    27    28   ar
    24    28    29    1
    25    28    30   ar
    26    30    31   ar
    27    31    32    1
    28    16    17   ar
    29     7     8   ar
    30     8     9   ar
    31     9    36    1
    32    36    37    1
    33    37    38    1
    34    38    39    1
    35    39    40    1
    36    40    41    1
    37    41    42    1
    38     9    10   ar
    39    10    11   ar
    40    11     1   ar
    41    10     5   ar
    42    17    12   ar
    43    42    37    1
    44    31    25   ar
    45    34    35    1
    46    20    21    1
@<TRIPOS>MOLECULE
*****
 42 46 0 0 0
SMALL
GASTEIGER

@<TRIPOS>ATOM
      1 C         139.0339  147.4898  156.7583 C.ar    1  UNL1        0.2167
      2 N         139.0163  146.6612  155.5081 N.ar    1  UNL1       -0.2182
      3 C         139.5052  145.2435  155.5411 C.ar    1  UNL1        0.0638
      4 C         139.4876  144.4148  154.2908 C.3     1  UNL1        0.0522
      5 C         140.0117  144.6544  156.8242 C.ar    1  UNL1        0.0344
      6 C         140.5005  143.2367  156.8571 C.ar    1  UNL1        0.0029
      7 C         141.0070  142.6476  158.1403 C.ar    1  UNL1        0.0047
      8 C         141.0246  143.4763  159.3905 C.ar    1  UNL1        0.0385
      9 C         140.5358  144.8940  159.3576 C.ar    1  UNL1        0.1560
     10 C         140.0293  145.4831  158.0743 C.ar    1  UNL1        0.1191
     11 N         139.5404  146.9008  158.0414 N.ar    1  UNL1       -0.2107
     12 C         141.4959  141.2299  158.1732 C.ar    1  UNL1        0.0208
     13 C         141.7514  140.4947  156.8909 C.ar    1  UNL1        0.1021
     14 N         142.2403  139.0770  156.9238 N.ar    1  UNL1       -0.2090
     15 C         142.4736  138.3945  158.2391 C.ar    1  UNL1        0.2400
     16 C         142.2181  139.1297  159.5213 C.ar    1  UNL1        0.1178
     17 C         141.7293  140.5474  159.4884 C.ar    1  UNL1        0.0221
     18 O         142.9625  136.9768  158.2721 O.3     1  UNL1       -0.4553
     19 C         142.9519  136.1505  157.0201 C.3     1  UNL1        0.2543
     20 N         142.4515  138.4472  160.8365 N.pl3   1  UNL1       -0.2104
     21 H         143.2562  137.8957  160.9689 H       1  UNL1        0.1739
     22 S         141.4588  138.6050  161.9499 S.O2    1  UNL1        0.0759
     23 O         142.4635  139.3963  162.7336 O.2     1  UNL1       -0.1499
     24 O         140.4540  137.8136  161.1663 O.2     1  UNL1       -0.1499
     25 C         140.4661  138.7627  163.0633 C.ar    1  UNL1        0.1526
     26 C         140.1618  137.6044  163.9666 C.ar    1  UNL1        0.0248
     27 C         139.1692  137.7622  165.0800 C.ar    1  UNL1        0.0312
     28 C         138.4808  139.0782  165.2902 C.ar    1  UNL1        0.1425
     29 F         137.4882  139.2360  166.4037 F       1  UNL1       -0.2041
     30 C         138.7851  140.2365  164.3870 C.ar    1  UNL1        0.0606
     31 C         139.7777  140.0788  163.2736 C.ar    1  UNL1        0.1611
     32 F         140.0820  141.2370  162.3704 F       1  UNL1       -0.2027
     33 C         138.0522  149.5604  157.9826 C.3     1  UNL1        0.1108
     34 N         138.5451  148.9076  156.7253 N.pl3   1  UNL1       -0.3013
     35 H         138.5477  149.4096  155.8785 H       1  UNL1        0.1497
     36 O         140.5534  145.7227  160.6077 O.3     1  UNL1       -0.4775
     37 C         140.3725  145.0671  161.9447 C.3     1  UNL1        0.1710
     38 C         139.0054  144.6429  162.3933 C.3     1  UNL1        0.0756
     39 C         138.8246  143.9874  163.7302 C.3     1  UNL1        0.1459
     40 O         140.0108  143.7559  164.6186 O.3     1  UNL1       -0.3535
     41 C         141.3778  144.1800  164.1701 C.3     1  UNL1        0.1459
     42 C         141.5587  144.8356  162.8332 C.3     1  UNL1        0.0756
@<TRIPOS>BOND
     1    33    34    1
     2    34     1    1
     3     1     2   ar
     4     2     3   ar
     5     3     4    1
     6     3     5   ar
     7     5     6   ar
     8     6     7   ar
     9     7    12    1
    10    12    13   ar
    11    13    14   ar
    12    14    15   ar
    13    15    18    1
    14    18    19    1
    15    15    16   ar
    16    16    20    1
    17    20    22    1
    18    22    23    2
    19    22    24    2
    20    22    25    1
    21    25    26   ar
    22    26    27   ar
    23    27    28   ar
    24    28    29    1
    25    28    30   ar
    26    30    31   ar
    27    31    32    1
    28    16    17   ar
    29     7     8   ar
    30     8     9   ar
    31     9    36    1
    32    36    37    1
    33    37    38    1
    34    38    39    1
    35    39    40    1
    36    40    41    1
    37    41    42    1
    38     9    10   ar
    39    10    11   ar
    40    11     1   ar
    41    10     5   ar
    42    17    12   ar
    43    42    37    1
    44    31    25   ar
    45    34    35    1
    46    20    21    1
@<TRIPOS>MOLECULE
*****
 42 46 0 0 0
SMALL
GASTEIGER

@<TRIPOS>ATOM
      1 C         143.2058  136.5673  155.6575 C.ar    1  UNL1        0.2167
      2 N         141.7606  136.5086  156.0546 N.ar    1  UNL1       -0.2182
      3 C         141.1206  137.6840  156.7322 C.ar    1  UNL1        0.0638
      4 C         139.6753  137.6252  157.1293 C.3     1  UNL1        0.0522
      5 C         141.9260  138.9180  157.0126 C.ar    1  UNL1        0.0344
      6 C         141.2860  140.0933  157.6901 C.ar    1  UNL1        0.0029
      7 C         142.0913  141.3273  157.9705 C.ar    1  UNL1        0.0047
      8 C         143.5367  141.3860  157.5734 C.ar    1  UNL1        0.0385
      9 C         144.1766  140.2107  156.8958 C.ar    1  UNL1        0.1560
     10 C         143.3712  138.9766  156.6154 C.ar    1  UNL1        0.1191
     11 N         144.0111  137.8013  155.9379 N.ar    1  UNL1       -0.2107
     12 C         141.4514  142.5026  158.6481 C.ar    1  UNL1        0.0208
     13 C         141.9255  143.8930  158.3443 C.ar    1  UNL1        0.1021
     14 N         141.2855  145.0683  159.0219 N.ar    1  UNL1       -0.2090
     15 C         140.1715  144.8533  160.0031 C.ar    1  UNL1        0.2400
     16 C         139.6975  143.4630  160.3068 C.ar    1  UNL1        0.1178
     17 C         140.3374  142.2876  159.6293 C.ar    1  UNL1        0.0221
     18 O         139.5316  146.0286  160.6807 O.3     1  UNL1       -0.4553
     19 C         139.8697  146.3478  162.1069 C.3     1  UNL1        0.2543
     20 N         138.5836  143.2480  161.2881 N.pl3   1  UNL1       -0.2104
     21 H         137.8435  143.8950  161.3422 H       1  UNL1        0.1739
     22 S         138.5971  142.0471  162.1869 S.O2    1  UNL1        0.0759
     23 O         137.4029  141.4947  161.4669 O.2     1  UNL1       -0.1499
     24 O         139.7914  142.5996  162.9070 O.2     1  UNL1       -0.1499
     25 C         138.6107  140.8464  163.0857 C.ar    1  UNL1        0.1526
     26 C         138.1572  140.9705  164.5102 C.ar    1  UNL1        0.0248
     27 C         138.1707  139.7697  165.4090 C.ar    1  UNL1        0.0312
     28 C         138.6377  138.4447  164.8834 C.ar    1  UNL1        0.1425
     29 F         138.6513  137.2439  165.7822 F       1  UNL1       -0.2041
     30 C         139.0912  138.3205  163.4590 C.ar    1  UNL1        0.0606
     31 C         139.0777  139.5213  162.5601 C.ar    1  UNL1        0.1611
     32 F         139.5311  139.3971  161.1357 F       1  UNL1       -0.2027
     33 C         143.8464  134.0494  155.6490 C.3     1  UNL1        0.1108
     34 N         143.8458  135.3919  154.9800 N.pl3   1  UNL1       -0.3013
     35 H         144.2654  135.5017  154.0961 H       1  UNL1        0.1497
     36 O         145.6218  140.2693  156.4987 O.3     1  UNL1       -0.4775
     37 C         146.0600  141.1869  155.3959 C.3     1  UNL1        0.1710
     38 C         147.0715  142.2599  155.6705 C.3     1  UNL1        0.0756
     39 C         147.5096  143.1775  154.5677 C.3     1  UNL1        0.1459
     40 O         146.9362  143.0220  153.1904 O.3     1  UNL1       -0.3535
     41 C         145.9247  141.9490  152.9158 C.3     1  UNL1        0.1459
     42 C         145.4866  141.0315  154.0186 C.3     1  UNL1        0.0756
@<TRIPOS>BOND
     1    33    34    1
     2    34     1    1
     3     1     2   ar
     4     2     3   ar
     5     3     4    1
     6     3     5   ar
     7     5     6   ar
     8     6     7   ar
     9     7    12    1
    10    12    13   ar
    11    13    14   ar
    12    14    15   ar
    13    15    18    1
    14    18    19    1
    15    15    16   ar
    16    16    20    1
    17    20    22    1
    18    22    23    2
    19    22    24    2
    20    22    25    1
    21    25    26   ar
    22    26    27   ar
    23    27    28   ar
    24    28    29    1
    25    28    30   ar
    26    30    31   ar
    27    31    32    1
    28    16    17   ar
    29     7     8   ar
    30     8     9   ar
    31     9    36    1
    32    36    37    1
    33    37    38    1
    34    38    39    1
    35    39    40    1
    36    40    41    1
    37    41    42    1
    38     9    10   ar
    39    10    11   ar
    40    11     1   ar
    41    10     5   ar
    42    17    12   ar
    43    42    37    1
    44    31    25   ar
    45    34    35    1
    46    20    21    1
@<TRIPOS>MOLECULE
*****
 42 46 0 0 0
SMALL
GASTEIGER

@<TRIPOS>ATOM
      1 C         142.5979  135.3719  156.6609 C.ar    1  UNL1        0.2167
      2 N         141.8441  135.8969  155.4751 N.ar    1  UNL1       -0.2182
      3 C         141.4694  137.3477  155.4069 C.ar    1  UNL1        0.0638
      4 C         140.7156  137.8726  154.2210 C.3     1  UNL1        0.0522
      5 C         141.8483  138.2736  156.5245 C.ar    1  UNL1        0.0344
      6 C         141.4736  139.7244  156.4562 C.ar    1  UNL1        0.0029
      7 C         141.8526  140.6503  157.5738 C.ar    1  UNL1        0.0047
      8 C         142.6064  140.1254  158.7597 C.ar    1  UNL1        0.0385
      9 C         142.9811  138.6745  158.8280 C.ar    1  UNL1        0.1560
     10 C         142.6021  137.7486  157.7103 C.ar    1  UNL1        0.1191
     11 N         142.9769  136.2978  157.7785 N.ar    1  UNL1       -0.2107
     12 C         141.4778  142.1011  157.5056 C.ar    1  UNL1        0.0208
     13 C         140.9361  142.6767  156.2306 C.ar    1  UNL1        0.1021
     14 N         140.5614  144.1275  156.1624 N.ar    1  UNL1       -0.2090
     15 C         140.7282  145.0028  157.3691 C.ar    1  UNL1        0.2400
     16 C         141.2699  144.4272  158.6440 C.ar    1  UNL1        0.1178
     17 C         141.6446  142.9764  158.7122 C.ar    1  UNL1        0.0221
     18 O         140.3535  146.4536  157.3009 O.3     1  UNL1       -0.4553
     19 C         139.3418  146.9204  156.2965 C.3     1  UNL1        0.2543
     20 N         141.4367  145.3025  159.8506 N.pl3   1  UNL1       -0.2104
     21 H         141.7709  146.2229  159.7487 H       1  UNL1        0.1739
     22 S         141.0943  144.7754  161.2126 S.O2    1  UNL1        0.0759
     23 O         139.6381  144.7927  160.8532 O.2     1  UNL1       -0.1499
     24 O         142.5505  144.7581  161.5721 O.2     1  UNL1       -0.1499
     25 C         140.7519  144.2484  162.5746 C.ar    1  UNL1        0.1526
     26 C         140.0281  145.1214  163.5565 C.ar    1  UNL1        0.0248
     27 C         139.6857  144.5944  164.9185 C.ar    1  UNL1        0.0312
     28 C         140.0670  143.1944  165.2986 C.ar    1  UNL1        0.1425
     29 F         139.7246  142.6673  166.6605 F       1  UNL1       -0.2041
     30 C         140.7907  142.3213  164.3167 C.ar    1  UNL1        0.0606
     31 C         141.1331  142.8483  162.9547 C.ar    1  UNL1        0.1611
     32 F         141.8568  141.9753  161.9729 F       1  UNL1       -0.2027
     33 C         144.0948  133.4775  157.6202 C.3     1  UNL1        0.1108
     34 N         142.9727  133.9211  156.7292 N.pl3   1  UNL1       -0.3013
     35 H         142.4821  133.2601  156.1892 H       1  UNL1        0.1497
     36 O         143.7349  138.1496  160.0138 O.3     1  UNL1       -0.4775
     37 C         143.2809  138.4909  161.4022 C.3     1  UNL1        0.1710
     38 C         144.1098  139.4004  162.2599 C.3     1  UNL1        0.0756
     39 C         143.6559  139.7417  163.6482 C.3     1  UNL1        0.1459
     40 O         142.3730  139.1735  164.1788 O.3     1  UNL1       -0.3535
     41 C         141.5442  138.2641  163.3210 C.3     1  UNL1        0.1459
     42 C         141.9981  137.9228  161.9327 C.3     1  UNL1        0.0756
@<TRIPOS>BOND
     1    33    34    1
     2    34     1    1
     3     1     2   ar
     4     2     3   ar
     5     3     4    1
     6     3     5   ar
     7     5     6   ar
     8     6     7   ar
     9     7    12    1
    10    12    13   ar
    11    13    14   ar
    12    14    15   ar
    13    15    18    1
    14    18    19    1
    15    15    16   ar
    16    16    20    1
    17    20    22    1
    18    22    23    2
    19    22    24    2
    20    22    25    1
    21    25    26   ar
    22    26    27   ar
    23    27    28   ar
    24    28    29    1
    25    28    30   ar
    26    30    31   ar
    27    31    32    1
    28    16    17   ar
    29     7     8   ar
    30     8     9   ar
    31     9    36    1
    32    36    37    1
    33    37    38    1
    34    38    39    1
    35    39    40    1
    36    40    41    1
    37    41    42    1
    38     9    10   ar
    39    10    11   ar
    40    11     1   ar
    41    10     5   ar
    42    17    12   ar
    43    42    37    1
    44    31    25   ar
    45    34    35    1
    46    20    21    1
@<TRIPOS>MOLECULE
*****
 42 46 0 0 0
SMALL
GASTEIGER

@<TRIPOS>ATOM
      1 C         144.7329  141.8468  162.9092 C.ar    1  UNL1        0.2167
      2 N         144.8082  142.5704  161.5975 N.ar    1  UNL1       -0.2182
      3 C         144.1344  141.9984  160.3856 C.ar    1  UNL1        0.0638
      4 C         144.2097  142.7221  159.0738 C.3     1  UNL1        0.0522
      5 C         143.3852  140.7027  160.4854 C.ar    1  UNL1        0.0344
      6 C         142.7113  140.1307  159.2735 C.ar    1  UNL1        0.0029
      7 C         141.9622  138.8351  159.3733 C.ar    1  UNL1        0.0047
      8 C         141.8868  138.1114  160.6851 C.ar    1  UNL1        0.0385
      9 C         142.5607  138.6834  161.8970 C.ar    1  UNL1        0.1560
     10 C         143.3099  139.9791  161.7971 C.ar    1  UNL1        0.1191
     11 N         143.9838  140.5512  163.0090 N.ar    1  UNL1       -0.2107
     12 C         141.2883  138.2630  158.1614 C.ar    1  UNL1        0.0208
     13 C         139.8308  138.5235  157.9206 C.ar    1  UNL1        0.1021
     14 N         139.1569  137.9514  156.7087 N.ar    1  UNL1       -0.2090
     15 C         139.9406  137.1190  155.7376 C.ar    1  UNL1        0.2400
     16 C         141.3980  136.8586  155.9784 C.ar    1  UNL1        0.1178
     17 C         142.0719  137.4306  157.1903 C.ar    1  UNL1        0.0221
     18 O         139.2667  136.5470  154.5257 O.3     1  UNL1       -0.4553
     19 C         138.4455  137.4325  153.6360 C.3     1  UNL1        0.2543
     20 N         142.1816  136.0262  155.0073 N.pl3   1  UNL1       -0.2104
     21 H         142.3023  136.3345  154.0802 H       1  UNL1        0.1739
     22 S         142.7814  134.7241  155.4489 S.O2    1  UNL1        0.0759
     23 O         144.1537  135.3201  155.3423 O.2     1  UNL1       -0.1499
     24 O         141.4090  134.1281  155.5555 O.2     1  UNL1       -0.1499
     25 C         143.3811  133.4221  155.8904 C.ar    1  UNL1        0.1526
     26 C         143.5603  132.3061  154.9042 C.ar    1  UNL1        0.0248
     27 C         144.1601  131.0041  155.3457 C.ar    1  UNL1        0.0312
     28 C         144.5806  130.8180  156.7735 C.ar    1  UNL1        0.1425
     29 F         145.1804  129.5159  157.2150 F       1  UNL1       -0.2041
     30 C         144.4014  131.9338  157.7597 C.ar    1  UNL1        0.0606
     31 C         143.8017  133.2359  157.3182 C.ar    1  UNL1        0.1611
     32 F         143.6225  134.3518  158.3044 F       1  UNL1       -0.2027
     33 C         144.5978  143.1369  165.1602 C.3     1  UNL1        0.1108
     34 N         145.4068  142.4188  164.1211 N.pl3   1  UNL1       -0.3013
     35 H         146.3800  142.3229  164.2344 H       1  UNL1        0.1497
     36 O         142.4854  137.9598  163.2087 O.3     1  UNL1       -0.4775
     37 C         141.3581  138.2419  164.1573 C.3     1  UNL1        0.1710
     38 C         141.5645  139.1797  165.3096 C.3     1  UNL1        0.0756
     39 C         140.4373  139.4618  166.2581 C.3     1  UNL1        0.1459
     40 O         139.1036  138.8061  166.0543 O.3     1  UNL1       -0.3535
     41 C         138.8973  137.8683  164.9020 C.3     1  UNL1        0.1459
     42 C         140.0245  137.5862  163.9535 C.3     1  UNL1        0.0756
@<TRIPOS>BOND
     1    33    34    1
     2    34     1    1
     3     1     2   ar
     4     2     3   ar
     5     3     4    1
     6     3     5   ar
     7     5     6   ar
     8     6     7   ar
     9     7    12    1
    10    12    13   ar
    11    13    14   ar
    12    14    15   ar
    13    15    18    1
    14    18    19    1
    15    15    16   ar
    16    16    20    1
    17    20    22    1
    18    22    23    2
    19    22    24    2
    20    22    25    1
    21    25    26   ar
    22    26    27   ar
    23    27    28   ar
    24    28    29    1
    25    28    30   ar
    26    30    31   ar
    27    31    32    1
    28    16    17   ar
    29     7     8   ar
    30     8     9   ar
    31     9    36    1
    32    36    37    1
    33    37    38    1
    34    38    39    1
    35    39    40    1
    36    40    41    1
    37    41    42    1
    38     9    10   ar
    39    10    11   ar
    40    11     1   ar
    41    10     5   ar
    42    17    12   ar
    43    42    37    1
    44    31    25   ar
    45    34    35    1
    46    20    21    1
@<TRIPOS>MOLECULE
*****
 42 46 0 0 0
SMALL
GASTEIGER

@<TRIPOS>ATOM
      1 C         143.3631  134.7927  155.9861 C.ar    1  UNL1        0.2167
      2 N         142.9967  135.3573  154.6457 N.ar    1  UNL1       -0.2182
      3 C         142.4969  136.7674  154.5370 C.ar    1  UNL1        0.0638
      4 C         142.1305  137.3320  153.1964 C.3     1  UNL1        0.0522
      5 C         142.3635  137.6129  155.7688 C.ar    1  UNL1        0.0344
      6 C         141.8636  139.0230  155.6601 C.ar    1  UNL1        0.0029
      7 C         141.7302  139.8684  156.8919 C.ar    1  UNL1        0.0047
      8 C         142.0966  139.3038  158.2324 C.ar    1  UNL1        0.0385
      9 C         142.5965  137.8937  158.3411 C.ar    1  UNL1        0.1560
     10 C         142.7299  137.0482  157.1092 C.ar    1  UNL1        0.1191
     11 N         143.2297  135.6382  157.2179 N.ar    1  UNL1       -0.2107
     12 C         141.2304  141.2785  156.7832 C.ar    1  UNL1        0.0208
     13 C         141.1872  141.9580  155.4466 C.ar    1  UNL1        0.1021
     14 N         140.6874  143.3681  155.3379 N.ar    1  UNL1       -0.2090
     15 C         140.2307  144.0987  156.5658 C.ar    1  UNL1        0.2400
     16 C         140.2739  143.4192  157.9024 C.ar    1  UNL1        0.1178
     17 C         140.7737  142.0091  158.0110 C.ar    1  UNL1        0.0221
     18 O         139.7309  145.5088  156.4571 O.3     1  UNL1       -0.4553
     19 C         138.6363  145.8439  155.4878 C.3     1  UNL1        0.2543
     20 N         139.8173  144.1498  159.1302 N.pl3   1  UNL1       -0.2104
     21 H         138.9150  144.5423  159.1624 H       1  UNL1        0.1739
     22 S         140.7354  144.2824  160.3090 S.O2    1  UNL1        0.0759
     23 O         141.4871  145.3704  159.6011 O.2     1  UNL1       -0.1499
     24 O         139.9837  143.1944  161.0169 O.2     1  UNL1       -0.1499
     25 C         141.6535  144.4151  161.4877 C.ar    1  UNL1        0.1526
     26 C         141.2759  145.3028  162.6364 C.ar    1  UNL1        0.0248
     27 C         142.1940  145.4355  163.8151 C.ar    1  UNL1        0.0312
     28 C         143.4898  144.6804  163.8453 C.ar    1  UNL1        0.1425
     29 F         144.4079  144.8130  165.0240 F       1  UNL1       -0.2041
     30 C         143.8674  143.7927  162.6967 C.ar    1  UNL1        0.0606
     31 C         142.9493  143.6600  161.5179 C.ar    1  UNL1        0.1611
     32 F         143.3269  142.7723  160.3693 F       1  UNL1       -0.2027
     33 C         142.9876  132.3205  156.6912 C.3     1  UNL1        0.1108
     34 N         143.8629  133.3826  156.0948 N.pl3   1  UNL1       -0.3013
     35 H         144.7655  133.1542  155.7747 H       1  UNL1        0.1497
     36 O         142.9629  137.3291  159.6816 O.3     1  UNL1       -0.4775
     37 C         142.9150  138.2011  160.9012 C.3     1  UNL1        0.1710
     38 C         141.6933  138.2069  161.7715 C.3     1  UNL1        0.0756
     39 C         141.6455  139.0788  162.9911 C.3     1  UNL1        0.1459
     40 O         142.8194  139.9449  163.3404 O.3     1  UNL1       -0.3535
     41 C         144.0410  139.9390  162.4701 C.3     1  UNL1        0.1459
     42 C         144.0888  139.0671  161.2505 C.3     1  UNL1        0.0756
@<TRIPOS>BOND
     1    33    34    1
     2    34     1    1
     3     1     2   ar
     4     2     3   ar
     5     3     4    1
     6     3     5   ar
     7     5     6   ar
     8     6     7   ar
     9     7    12    1
    10    12    13   ar
    11    13    14   ar
    12    14    15   ar
    13    15    18    1
    14    18    19    1
    15    15    16   ar
    16    16    20    1
    17    20    22    1
    18    22    23    2
    19    22    24    2
    20    22    25    1
    21    25    26   ar
    22    26    27   ar
    23    27    28   ar
    24    28    29    1
    25    28    30   ar
    26    30    31   ar
    27    31    32    1
    28    16    17   ar
    29     7     8   ar
    30     8     9   ar
    31     9    36    1
    32    36    37    1
    33    37    38    1
    34    38    39    1
    35    39    40    1
    36    40    41    1
    37    41    42    1
    38     9    10   ar
    39    10    11   ar
    40    11     1   ar
    41    10     5   ar
    42    17    12   ar
    43    42    37    1
    44    31    25   ar
    45    34    35    1
    46    20    21    1
@<TRIPOS>MOLECULE
*****
 42 46 0 0 0
SMALL
GASTEIGER

@<TRIPOS>ATOM
      1 C         138.2533  143.0375  161.4560 C.ar    1  UNL1        0.2167
      2 N         138.8163  143.6457  160.2058 N.ar    1  UNL1       -0.2182
      3 C         139.3399  142.7627  159.1121 C.ar    1  UNL1        0.0638
      4 C         139.9029  143.3710  157.8619 C.3     1  UNL1        0.0522
      5 C         139.3004  141.2714  159.2686 C.ar    1  UNL1        0.0344
      6 C         139.8240  140.3884  158.1749 C.ar    1  UNL1        0.0029
      7 C         139.7845  138.8971  158.3314 C.ar    1  UNL1        0.0047
      8 C         139.2214  138.2888  159.5816 C.ar    1  UNL1        0.0385
      9 C         138.6979  139.1718  160.6753 C.ar    1  UNL1        0.1560
     10 C         138.7374  140.6632  160.5188 C.ar    1  UNL1        0.1191
     11 N         138.2138  141.5462  161.6124 N.ar    1  UNL1       -0.2107
     12 C         140.3080  138.0141  157.2377 C.ar    1  UNL1        0.0208
     13 C         139.4756  137.7596  156.0161 C.ar    1  UNL1        0.1021
     14 N         139.9991  136.8766  154.9224 N.ar    1  UNL1       -0.2090
     15 C         141.3552  136.2481  155.0503 C.ar    1  UNL1        0.2400
     16 C         142.1876  136.5027  156.2719 C.ar    1  UNL1        0.1178
     17 C         141.6640  137.3857  157.3656 C.ar    1  UNL1        0.0221
     18 O         141.8787  135.3651  153.9566 O.3     1  UNL1       -0.4553
     19 C         140.9243  134.5944  153.0933 C.3     1  UNL1        0.2543
     20 N         143.5435  135.8742  156.3997 N.pl3   1  UNL1       -0.2104
     21 H         144.3530  136.4196  156.2709 H       1  UNL1        0.1739
     22 S         143.6662  134.4148  156.7239 S.O2    1  UNL1        0.0759
     23 O         144.0550  134.1319  155.3030 O.2     1  UNL1       -0.1499
     24 O         143.2774  134.6976  158.1447 O.2     1  UNL1       -0.1499
     25 C         143.7889  132.9554  157.0479 C.ar    1  UNL1        0.1526
     26 C         144.9671  132.4576  157.8316 C.ar    1  UNL1        0.0248
     27 C         145.0898  130.9982  158.1557 C.ar    1  UNL1        0.0312
     28 C         144.0344  130.0365  157.6961 C.ar    1  UNL1        0.1425
     29 F         144.1571  128.5771  158.0202 F       1  UNL1       -0.2041
     30 C         142.8562  130.5342  156.9125 C.ar    1  UNL1        0.0606
     31 C         142.7335  131.9937  156.5884 C.ar    1  UNL1        0.1611
     32 F         141.5553  132.4914  155.8047 F       1  UNL1       -0.2027
     33 C         137.8563  143.4950  163.9824 C.3     1  UNL1        0.1108
     34 N         137.7297  143.9205  162.5497 N.pl3   1  UNL1       -0.3013
     35 H         137.3029  144.7793  162.3271 H       1  UNL1        0.1497
     36 O         138.1348  138.5636  161.9255 O.3     1  UNL1       -0.4775
     37 C         138.9885  138.4477  163.1534 C.3     1  UNL1        0.1710
     38 C         140.1747  137.5296  163.1583 C.3     1  UNL1        0.0756
     39 C         141.0283  137.4138  164.3863 C.3     1  UNL1        0.1459
     40 O         140.6957  138.2160  165.6093 O.3     1  UNL1       -0.3535
     41 C         139.5095  139.1340  165.6044 C.3     1  UNL1        0.1459
     42 C         138.6559  139.2499  164.3765 C.3     1  UNL1        0.0756
@<TRIPOS>BOND
     1    33    34    1
     2    34     1    1
     3     1     2   ar
     4     2     3   ar
     5     3     4    1
     6     3     5   ar
     7     5     6   ar
     8     6     7   ar
     9     7    12    1
    10    12    13   ar
    11    13    14   ar
    12    14    15   ar
    13    15    18    1
    14    18    19    1
    15    15    16   ar
    16    16    20    1
    17    20    22    1
    18    22    23    2
    19    22    24    2
    20    22    25    1
    21    25    26   ar
    22    26    27   ar
    23    27    28   ar
    24    28    29    1
    25    28    30   ar
    26    30    31   ar
    27    31    32    1
    28    16    17   ar
    29     7     8   ar
    30     8     9   ar
    31     9    36    1
    32    36    37    1
    33    37    38    1
    34    38    39    1
    35    39    40    1
    36    40    41    1
    37    41    42    1
    38     9    10   ar
    39    10    11   ar
    40    11     1   ar
    41    10     5   ar
    42    17    12   ar
    43    42    37    1
    44    31    25   ar
    45    34    35    1
    46    20    21    1
@<TRIPOS>MOLECULE
*****
 42 46 0 0 0
SMALL
GASTEIGER

@<TRIPOS>ATOM
      1 C         139.1821  147.0655  156.4925 C.ar    1  UNL1        0.2167
      2 N         138.8776  146.1791  155.3214 N.ar    1  UNL1       -0.2182
      3 C         139.3162  144.7447  155.3325 C.ar    1  UNL1        0.0638
      4 C         139.0117  143.8582  154.1613 C.3     1  UNL1        0.0522
      5 C         140.0592  144.1967  156.5147 C.ar    1  UNL1        0.0344
      6 C         140.4978  142.7623  156.5258 C.ar    1  UNL1        0.0029
      7 C         141.2408  142.2143  157.7079 C.ar    1  UNL1        0.0047
      8 C         141.5453  143.1008  158.8791 C.ar    1  UNL1        0.0385
      9 C         141.1068  144.5352  158.8680 C.ar    1  UNL1        0.1560
     10 C         140.3637  145.0831  157.6857 C.ar    1  UNL1        0.1191
     11 N         139.9252  146.5176  157.6747 N.ar    1  UNL1       -0.2107
     12 C         141.6794  140.7799  157.7190 C.ar    1  UNL1        0.0208
     13 C         141.4217  139.9076  156.5262 C.ar    1  UNL1        0.1021
     14 N         141.8603  138.4732  156.5372 N.ar    1  UNL1       -0.2090
     15 C         142.5565  137.9111  157.7412 C.ar    1  UNL1        0.2400
     16 C         142.8141  138.7833  158.9339 C.ar    1  UNL1        0.1178
     17 C         142.3755  140.2177  158.9229 C.ar    1  UNL1        0.0221
     18 O         142.9950  136.4766  157.7523 O.3     1  UNL1       -0.4553
     19 C         143.2078  135.7474  156.4588 C.3     1  UNL1        0.2543
     20 N         143.5102  138.2212  160.1378 N.pl3   1  UNL1       -0.2104
     21 H         144.1870  137.5143  160.0297 H       1  UNL1        0.1739
     22 S         143.1754  138.7360  161.5064 S.O2    1  UNL1        0.0759
     23 O         141.9574  137.8610  161.5374 O.2     1  UNL1       -0.1499
     24 O         144.3933  139.6110  161.4753 O.2     1  UNL1       -0.1499
     25 C         142.8405  139.2507  162.8749 C.ar    1  UNL1        0.1526
     26 C         143.4553  138.6151  164.0865 C.ar    1  UNL1        0.0248
     27 C         143.1204  139.1298  165.4550 C.ar    1  UNL1        0.0312
     28 C         142.1707  140.2802  165.6119 C.ar    1  UNL1        0.1425
     29 F         141.8358  140.7950  166.9804 F       1  UNL1       -0.2041
     30 C         141.5559  140.9159  164.4004 C.ar    1  UNL1        0.0606
     31 C         141.8908  140.4012  163.0318 C.ar    1  UNL1        0.1611
     32 F         141.2760  141.0368  161.8203 F       1  UNL1       -0.2027
     33 C         138.9052  149.3241  155.2386 C.3     1  UNL1        0.1108
     34 N         138.7436  148.5000  156.4814 N.pl3   1  UNL1       -0.3013
     35 H         138.3496  148.9005  157.2899 H       1  UNL1        0.1497
     36 O         141.4113  145.4216  160.0391 O.3     1  UNL1       -0.4775
     37 C         140.9840  145.0153  161.4184 C.3     1  UNL1        0.1710
     38 C         139.5591  144.6252  161.6778 C.3     1  UNL1        0.0756
     39 C         139.1319  144.2189  163.0570 C.3     1  UNL1        0.1459
     40 O         140.1297  144.2027  164.1769 O.3     1  UNL1       -0.3535
     41 C         141.5546  144.5928  163.9176 C.3     1  UNL1        0.1459
     42 C         141.9818  144.9991  162.5383 C.3     1  UNL1        0.0756
@<TRIPOS>BOND
     1    33    34    1
     2    34     1    1
     3     1     2   ar
     4     2     3   ar
     5     3     4    1
     6     3     5   ar
     7     5     6   ar
     8     6     7   ar
     9     7    12    1
    10    12    13   ar
    11    13    14   ar
    12    14    15   ar
    13    15    18    1
    14    18    19    1
    15    15    16   ar
    16    16    20    1
    17    20    22    1
    18    22    23    2
    19    22    24    2
    20    22    25    1
    21    25    26   ar
    22    26    27   ar
    23    27    28   ar
    24    28    29    1
    25    28    30   ar
    26    30    31   ar
    27    31    32    1
    28    16    17   ar
    29     7     8   ar
    30     8     9   ar
    31     9    36    1
    32    36    37    1
    33    37    38    1
    34    38    39    1
    35    39    40    1
    36    40    41    1
    37    41    42    1
    38     9    10   ar
    39    10    11   ar
    40    11     1   ar
    41    10     5   ar
    42    17    12   ar
    43    42    37    1
    44    31    25   ar
    45    34    35    1
    46    20    21    1
