@<TRIPOS>MOLECULE
*****
 39 40 0 0 0
SMALL
GASTEIGER

@<TRIPOS>ATOM
      1 C         142.0443  138.1004  159.1560 C.2     1  UNL1        0.2302
      2 O         142.8193  137.4139  160.2416 O.2     1  UNL1       -0.2744
      3 N         140.7856  138.8451  159.4892 N.am    1  UNL1       -0.2836
      4 H         140.2770  139.2957  158.7768 H       1  UNL1        0.1549
      5 C         140.3017  138.9032  160.9079 C.ar    1  UNL1        0.0503
      6 C         140.9367  139.8543  161.8785 C.ar    1  UNL1        0.0144
      7 C         140.4529  139.9125  163.2971 C.ar    1  UNL1       -0.0002
      8 C         139.3341  139.0194  163.7452 C.ar    1  UNL1        0.0182
      9 C         138.6991  138.0682  162.7746 C.ar    1  UNL1       -0.0002
     10 C         139.1830  138.0101  161.3560 C.ar    1  UNL1        0.0144
     11 C         138.8503  139.0775  165.1639 C.3     1  UNL1        0.2827
     12 O         139.4084  137.7073  165.4103 O.3     1  UNL1       -0.3692
     13 H         139.2338  137.4473  166.3284 H       1  UNL1        0.2112
     14 C         138.3666  139.1357  166.5825 C.3     1  UNL1        0.4311
     15 F         137.8828  139.1938  168.0012 F       1  UNL1       -0.1669
     16 F         139.7789  139.3093  167.0570 F       1  UNL1       -0.1669
     17 F         137.5040  139.0381  166.4065 F       1  UNL1       -0.1669
     18 C         138.2922  140.4478  164.9174 C.3     1  UNL1        0.4311
     19 F         137.7341  141.8182  164.6709 F       1  UNL1       -0.1669
     20 F         137.6561  140.2050  164.3508 F       1  UNL1       -0.1669
     21 F         139.1436  141.3447  165.7663 F       1  UNL1       -0.1669
     22 C         142.5282  138.0423  157.7375 C.3     1  UNL1        0.1081
     23 C         141.6767  134.4132  155.2166 C.ar    1  UNL1        0.1056
     24 C         140.7943  135.6218  155.1135 C.ar    1  UNL1        0.0180
     25 C         141.0782  136.8315  155.9538 C.ar    1  UNL1       -0.0025
     26 C         142.2444  136.8326  156.8972 C.ar    1  UNL1       -0.0133
     27 C         143.1267  135.6240  157.0002 C.ar    1  UNL1       -0.0025
     28 C         142.8429  134.4143  156.1599 C.ar    1  UNL1        0.0180
     29 S         141.3928  133.2035  154.3763 S.O2    1  UNL1        0.0087
     30 O         141.5332  132.3295  155.5872 O.2     1  UNL1       -0.1686
     31 O         141.2525  134.0776  153.1654 O.2     1  UNL1       -0.1686
     32 C         141.0101  130.6415  154.1774 C.3     1  UNL1        0.0276
     33 C         141.1090  131.9938  153.5360 C.3     1  UNL1        0.1560
     34 C         143.2959  139.1939  157.1591 C.3     1  UNL1        0.0987
     35 C         143.9160  139.0742  155.7986 C.2     1  UNL1        0.2266
     36 O         145.2320  138.3736  155.6331 O.2     1  UNL1       -0.2748
     37 N         143.2201  139.6550  154.6034 N.am    1  UNL1       -0.2760
     38 C         143.8402  139.5353  153.2428 C.3     1  UNL1        0.1149
     39 C         141.9041  140.3556  154.7689 C.3     1  UNL1        0.1149
@<TRIPOS>BOND
     1    32    33    1
     2    33    29    1
     3    29    30    2
     4    29    31    2
     5    29    23    1
     6    23    24   ar
     7    24    25   ar
     8    25    26   ar
     9    26    22    1
    10    22    34    1
    11    34    35    1
    12    35    36    2
    13    35    37   am
    14    37    38    1
    15    37    39    1
    16    22     1    1
    17     1     2    2
    18     1     3   am
    19     3     5    1
    20     5     6   ar
    21     6     7   ar
    22     7     8   ar
    23     8    11    1
    24    11    12    1
    25    11    14    1
    26    14    15    1
    27    14    16    1
    28    14    17    1
    29    11    18    1
    30    18    19    1
    31    18    20    1
    32    18    21    1
    33     8     9   ar
    34     9    10   ar
    35    26    27   ar
    36    27    28   ar
    37    28    23   ar
    38    10     5   ar
    39     3     4    1
    40    12    13    1
@<TRIPOS>MOLECULE
*****
 39 40 0 0 0
SMALL
GASTEIGER

@<TRIPOS>ATOM
      1 C         141.8856  138.1476  159.0652 C.2     1  UNL1        0.2302
      2 O         142.7361  137.5500  160.1467 O.2     1  UNL1       -0.2744
      3 N         140.5839  138.8069  159.4129 N.am    1  UNL1       -0.2836
      4 H         140.0257  139.1991  158.7031 H       1  UNL1        0.1549
      5 C         140.1328  138.8687  160.8422 C.ar    1  UNL1        0.0503
      6 C         140.7989  139.8127  161.7988 C.ar    1  UNL1        0.0144
      7 C         140.3478  139.8745  163.2280 C.ar    1  UNL1       -0.0002
      8 C         139.2305  138.9922  163.7007 C.ar    1  UNL1        0.0182
      9 C         138.5644  138.0482  162.7441 C.ar    1  UNL1       -0.0002
     10 C         139.0155  137.9864  161.3148 C.ar    1  UNL1        0.0144
     11 C         138.7794  139.0540  165.1299 C.3     1  UNL1        0.2827
     12 O         139.3037  137.6668  165.3553 O.3     1  UNL1       -0.3692
     13 H         139.1417  137.4055  166.2753 H       1  UNL1        0.2112
     14 C         138.3283  139.1158  166.5591 C.3     1  UNL1        0.4311
     15 F         137.8773  139.1776  167.9883 F       1  UNL1       -0.1669
     16 F         139.7555  139.2385  167.0042 F       1  UNL1       -0.1669
     17 F         137.4595  139.0483  166.4011 F       1  UNL1       -0.1669
     18 C         138.2552  140.4412  164.9044 C.3     1  UNL1        0.4311
     19 F         137.7309  141.8284  164.6789 F       1  UNL1       -0.1669
     20 F         137.6107  140.2222  164.3375 F       1  UNL1       -0.1669
     21 F         139.1326  141.3046  165.7614 F       1  UNL1       -0.1669
     22 C         142.3368  138.0858  157.6360 C.3     1  UNL1        0.1081
     23 C         145.4277  140.9863  156.1249 C.ar    1  UNL1        0.1056
     24 C         145.0113  139.8232  155.2741 C.ar    1  UNL1        0.0180
     25 C         143.9810  138.8564  155.7779 C.ar    1  UNL1       -0.0025
     26 C         143.3671  139.0526  157.1323 C.ar    1  UNL1       -0.0133
     27 C         143.7835  140.2157  157.9830 C.ar    1  UNL1       -0.0025
     28 C         144.8138  141.1825  157.4793 C.ar    1  UNL1        0.0180
     29 S         146.4580  141.9531  155.6212 S.O2    1  UNL1        0.0087
     30 O         146.6539  142.4707  157.0154 O.2     1  UNL1       -0.1686
     31 O         146.2621  141.4355  154.2270 O.2     1  UNL1       -0.1686
     32 C         147.1420  143.8798  154.0181 C.3     1  UNL1        0.0276
     33 C         147.4883  142.9199  155.1175 C.3     1  UNL1        0.1560
     34 C         141.7576  137.0572  156.7105 C.3     1  UNL1        0.0987
     35 C         140.4325  137.3023  156.0517 C.2     1  UNL1        0.2266
     36 O         139.2354  137.6559  156.8834 O.2     1  UNL1       -0.2748
     37 N         140.3046  137.1938  154.5611 N.am    1  UNL1       -0.2760
     38 C         138.9795  137.4389  153.9022 C.3     1  UNL1        0.1149
     39 C         141.5017  136.8402  153.7293 C.3     1  UNL1        0.1149
@<TRIPOS>BOND
     1    32    33    1
     2    33    29    1
     3    29    30    2
     4    29    31    2
     5    29    23    1
     6    23    24   ar
     7    24    25   ar
     8    25    26   ar
     9    26    22    1
    10    22    34    1
    11    34    35    1
    12    35    36    2
    13    35    37   am
    14    37    38    1
    15    37    39    1
    16    22     1    1
    17     1     2    2
    18     1     3   am
    19     3     5    1
    20     5     6   ar
    21     6     7   ar
    22     7     8   ar
    23     8    11    1
    24    11    12    1
    25    11    14    1
    26    14    15    1
    27    14    16    1
    28    14    17    1
    29    11    18    1
    30    18    19    1
    31    18    20    1
    32    18    21    1
    33     8     9   ar
    34     9    10   ar
    35    26    27   ar
    36    27    28   ar
    37    28    23   ar
    38    10     5   ar
    39     3     4    1
    40    12    13    1
@<TRIPOS>MOLECULE
*****
 39 40 0 0 0
SMALL
GASTEIGER

@<TRIPOS>ATOM
      1 C         140.6847  141.4363  161.9793 C.2     1  UNL1        0.2302
      2 O         141.9646  142.0794  162.4249 O.2     1  UNL1       -0.2744
      3 N         139.7984  140.7570  162.9808 N.am    1  UNL1       -0.2836
      4 H         138.9584  140.3349  162.6884 H       1  UNL1        0.1549
      5 C         140.1919  140.7208  164.4279 C.ar    1  UNL1        0.0503
      6 C         141.0259  139.5887  164.9502 C.ar    1  UNL1        0.0144
      7 C         141.4194  139.5524  166.3972 C.ar    1  UNL1       -0.0002
      8 C         140.9789  140.6483  167.3219 C.ar    1  UNL1        0.0182
      9 C         140.1449  141.7804  166.7996 C.ar    1  UNL1       -0.0002
     10 C         139.7514  141.8166  165.3525 C.ar    1  UNL1        0.0144
     11 C         141.3724  140.6120  168.7689 C.3     1  UNL1        0.2827
     12 O         142.8062  140.8276  168.3844 O.3     1  UNL1       -0.3692
     13 H         143.3551  140.8519  169.1837 H       1  UNL1        0.2112
     14 C         141.7659  140.5758  170.2159 C.3     1  UNL1        0.4311
     15 F         142.1595  140.5396  171.6629 F       1  UNL1       -0.1669
     16 F         142.1840  142.0142  170.1382 F       1  UNL1       -0.1669
     17 F         141.5492  139.7302  170.3656 F       1  UNL1       -0.1669
     18 C         139.9387  140.3965  169.1534 C.3     1  UNL1        0.4311
     19 F         138.5049  140.1810  169.5379 F       1  UNL1       -0.1669
     20 F         139.8593  139.5795  168.8206 F       1  UNL1       -0.1669
     21 F         139.5523  141.6712  169.8432 F       1  UNL1       -0.1669
     22 C         140.2913  141.4725  160.5323 C.3     1  UNL1        0.1081
     23 C         141.5435  138.1431  157.7761 C.ar    1  UNL1        0.1056
     24 C         140.1183  138.6104  157.7885 C.ar    1  UNL1        0.0180
     25 C         139.7008  139.7202  158.7073 C.ar    1  UNL1       -0.0025
     26 C         140.7087  140.3627  159.6136 C.ar    1  UNL1       -0.0133
     27 C         142.1340  139.8954  159.6011 C.ar    1  UNL1       -0.0025
     28 C         142.5514  138.7856  158.6823 C.ar    1  UNL1        0.0180
     29 S         141.9609  137.0333  156.8573 S.O2    1  UNL1        0.0087
     30 O         140.5304  136.8280  156.4555 O.2     1  UNL1       -0.1686
     31 O         143.3914  137.2387  157.2591 O.2     1  UNL1       -0.1686
     32 C         143.8335  135.6839  155.6646 C.3     1  UNL1        0.0276
     33 C         142.3783  135.9235  155.9385 C.3     1  UNL1        0.1560
     34 C         139.4804  142.6185  160.0041 C.3     1  UNL1        0.0987
     35 C         139.1754  143.7917  160.8877 C.2     1  UNL1        0.2266
     36 O         137.9667  143.7677  161.7756 O.2     1  UNL1       -0.2748
     37 N         140.0793  144.9889  160.8834 N.am    1  UNL1       -0.2760
     38 C         139.7743  146.1620  161.7670 C.3     1  UNL1        0.1149
     39 C         141.2880  145.0129  159.9955 C.3     1  UNL1        0.1149
@<TRIPOS>BOND
     1    32    33    1
     2    33    29    1
     3    29    30    2
     4    29    31    2
     5    29    23    1
     6    23    24   ar
     7    24    25   ar
     8    25    26   ar
     9    26    22    1
    10    22    34    1
    11    34    35    1
    12    35    36    2
    13    35    37   am
    14    37    38    1
    15    37    39    1
    16    22     1    1
    17     1     2    2
    18     1     3   am
    19     3     5    1
    20     5     6   ar
    21     6     7   ar
    22     7     8   ar
    23     8    11    1
    24    11    12    1
    25    11    14    1
    26    14    15    1
    27    14    16    1
    28    14    17    1
    29    11    18    1
    30    18    19    1
    31    18    20    1
    32    18    21    1
    33     8     9   ar
    34     9    10   ar
    35    26    27   ar
    36    27    28   ar
    37    28    23   ar
    38    10     5   ar
    39     3     4    1
    40    12    13    1
@<TRIPOS>MOLECULE
*****
 39 40 0 0 0
SMALL
GASTEIGER

@<TRIPOS>ATOM
      1 C         141.7070  138.4172  158.7141 C.2     1  UNL1        0.2302
      2 O         142.5506  137.7475  159.7582 O.2     1  UNL1       -0.2744
      3 N         140.4244  139.0898  159.1044 N.am    1  UNL1       -0.2836
      4 H         139.8707  139.5294  158.4192 H       1  UNL1        0.1549
      5 C         139.9853  139.0928  160.5388 C.ar    1  UNL1        0.0503
      6 C         139.0187  138.0560  161.0293 C.ar    1  UNL1        0.0144
      7 C         138.5796  138.0590  162.4636 C.ar    1  UNL1       -0.0002
      8 C         139.1071  139.0987  163.4074 C.ar    1  UNL1        0.0182
      9 C         140.0737  140.1356  162.9168 C.ar    1  UNL1       -0.0002
     10 C         140.5128  140.1326  161.4824 C.ar    1  UNL1        0.0144
     11 C         138.6680  139.1017  164.8416 C.3     1  UNL1        0.2827
     12 O         137.8580  140.3390  164.5911 O.3     1  UNL1       -0.3692
     13 H         137.4157  140.6076  165.4116 H       1  UNL1        0.2112
     14 C         138.2289  139.1046  166.2759 C.3     1  UNL1        0.4311
     15 F         137.7898  139.1076  167.7102 F       1  UNL1       -0.1669
     16 F         139.3940  139.9800  166.6308 F       1  UNL1       -0.1669
     17 F         137.5144  138.5918  166.1711 F       1  UNL1       -0.1669
     18 C         139.4780  137.8643  165.0921 C.3     1  UNL1        0.4311
     19 F         140.2881  136.6269  165.3427 F       1  UNL1       -0.1669
     20 F         140.2760  138.2453  165.0403 F       1  UNL1       -0.1669
     21 F         138.4496  136.7867  165.2685 F       1  UNL1       -0.1669
     22 C         142.1462  138.4142  157.2799 C.3     1  UNL1        0.1081
     23 C         142.3601  134.5401  155.0004 C.ar    1  UNL1        0.1056
     24 C         141.0533  135.2657  155.1253 C.ar    1  UNL1        0.0180
     25 C         140.9819  136.5570  155.8851 C.ar    1  UNL1       -0.0025
     26 C         142.2175  137.1228  156.5201 C.ar    1  UNL1       -0.0133
     27 C         143.5244  136.3973  156.3952 C.ar    1  UNL1       -0.0025
     28 C         143.5957  135.1060  155.6353 C.ar    1  UNL1        0.0180
     29 S         142.4315  133.2488  154.2405 S.O2    1  UNL1        0.0087
     30 O         143.5855  132.8110  155.0929 O.2     1  UNL1       -0.1686
     31 O         141.2775  133.6866  153.3881 O.2     1  UNL1       -0.1686
     32 C         143.4909  130.9035  153.8841 C.3     1  UNL1        0.0276
     33 C         142.5028  131.9575  153.4807 C.3     1  UNL1        0.1560
     34 C         142.5140  139.7025  156.6055 C.3     1  UNL1        0.0987
     35 C         143.7360  140.4551  157.0416 C.2     1  UNL1        0.2266
     36 O         145.0983  139.9658  156.6484 O.2     1  UNL1       -0.2748
     37 N         143.5957  141.6972  157.8708 N.am    1  UNL1       -0.2760
     38 C         144.8177  142.4499  158.3069 C.3     1  UNL1        0.1149
     39 C         142.2334  142.1866  158.2640 C.3     1  UNL1        0.1149
@<TRIPOS>BOND
     1    32    33    1
     2    33    29    1
     3    29    30    2
     4    29    31    2
     5    29    23    1
     6    23    24   ar
     7    24    25   ar
     8    25    26   ar
     9    26    22    1
    10    22    34    1
    11    34    35    1
    12    35    36    2
    13    35    37   am
    14    37    38    1
    15    37    39    1
    16    22     1    1
    17     1     2    2
    18     1     3   am
    19     3     5    1
    20     5     6   ar
    21     6     7   ar
    22     7     8   ar
    23     8    11    1
    24    11    12    1
    25    11    14    1
    26    14    15    1
    27    14    16    1
    28    14    17    1
    29    11    18    1
    30    18    19    1
    31    18    20    1
    32    18    21    1
    33     8     9   ar
    34     9    10   ar
    35    26    27   ar
    36    27    28   ar
    37    28    23   ar
    38    10     5   ar
    39     3     4    1
    40    12    13    1
@<TRIPOS>MOLECULE
*****
 39 40 0 0 0
SMALL
GASTEIGER

@<TRIPOS>ATOM
      1 C         139.2404  139.7670  162.0190 C.2     1  UNL1        0.2302
      2 O         139.1801  138.2755  162.1667 O.2     1  UNL1       -0.2744
      3 N         139.8792  140.3753  160.8057 N.am    1  UNL1       -0.2836
      4 H         139.9187  141.3542  160.7087 H       1  UNL1        0.1549
      5 C         140.4577  139.4920  159.7402 C.ar    1  UNL1        0.0503
      6 C         141.9354  139.2382  159.6971 C.ar    1  UNL1        0.0144
      7 C         142.5139  138.3550  158.6317 C.ar    1  UNL1       -0.0002
      8 C         141.6147  137.7255  157.6093 C.ar    1  UNL1        0.0182
      9 C         140.1369  137.9793  157.6524 C.ar    1  UNL1       -0.0002
     10 C         139.5584  138.8626  158.7179 C.ar    1  UNL1        0.0144
     11 C         142.1932  136.8423  156.5438 C.3     1  UNL1        0.2827
     12 O         142.8666  136.0131  157.5969 O.3     1  UNL1       -0.3692
     13 H         143.3644  135.2958  157.1743 H       1  UNL1        0.2112
     14 C         142.7717  135.9591  155.4784 C.3     1  UNL1        0.4311
     15 F         143.3502  135.0758  154.4129 F       1  UNL1       -0.1669
     16 F         141.8771  134.8393  155.9209 F       1  UNL1       -0.1669
     17 F         143.3377  136.5517  155.1424 F       1  UNL1       -0.1669
     18 C         141.5199  137.6715  155.4908 C.3     1  UNL1        0.4311
     19 F         140.8464  138.5008  154.4377 F       1  UNL1       -0.1669
     20 F         140.9139  137.0713  155.2518 F       1  UNL1       -0.1669
     21 F         142.2798  138.9646  155.5060 F       1  UNL1       -0.1669
     22 C         138.6619  140.6502  163.0844 C.3     1  UNL1        0.1081
     23 C         139.9625  140.1602  167.3644 C.ar    1  UNL1        0.1056
     24 C         140.7618  141.0209  166.4315 C.ar    1  UNL1        0.0180
     25 C         140.3282  141.1842  165.0049 C.ar    1  UNL1       -0.0025
     26 C         139.0954  140.4869  164.5111 C.ar    1  UNL1       -0.0133
     27 C         138.2962  139.6262  165.4440 C.ar    1  UNL1       -0.0025
     28 C         138.7297  139.4628  166.8706 C.ar    1  UNL1        0.0180
     29 S         140.3960  139.9968  168.7911 S.O2    1  UNL1        0.0087
     30 O         141.8161  140.2671  168.3905 O.2     1  UNL1       -0.1686
     31 O         138.9760  139.7266  169.1917 O.2     1  UNL1       -0.1686
     32 C         141.1153  141.0428  171.0579 C.3     1  UNL1        0.0276
     33 C         140.8296  139.8335  170.2177 C.3     1  UNL1        0.1560
     34 C         137.6499  141.6968  162.7232 C.3     1  UNL1        0.0987
     35 C         138.0969  142.9974  162.1245 C.2     1  UNL1        0.2266
     36 O         138.3069  143.1084  160.6435 O.2     1  UNL1       -0.2748
     37 N         138.3340  144.1871  163.0069 N.am    1  UNL1       -0.2760
     38 C         138.7810  145.4877  162.4082 C.3     1  UNL1        0.1149
     39 C         138.1240  144.0761  164.4880 C.3     1  UNL1        0.1149
@<TRIPOS>BOND
     1    32    33    1
     2    33    29    1
     3    29    30    2
     4    29    31    2
     5    29    23    1
     6    23    24   ar
     7    24    25   ar
     8    25    26   ar
     9    26    22    1
    10    22    34    1
    11    34    35    1
    12    35    36    2
    13    35    37   am
    14    37    38    1
    15    37    39    1
    16    22     1    1
    17     1     2    2
    18     1     3   am
    19     3     5    1
    20     5     6   ar
    21     6     7   ar
    22     7     8   ar
    23     8    11    1
    24    11    12    1
    25    11    14    1
    26    14    15    1
    27    14    16    1
    28    14    17    1
    29    11    18    1
    30    18    19    1
    31    18    20    1
    32    18    21    1
    33     8     9   ar
    34     9    10   ar
    35    26    27   ar
    36    27    28   ar
    37    28    23   ar
    38    10     5   ar
    39     3     4    1
    40    12    13    1
@<TRIPOS>MOLECULE
*****
 39 40 0 0 0
SMALL
GASTEIGER

@<TRIPOS>ATOM
      1 C         141.8445  138.1470  157.6685 C.2     1  UNL1        0.2302
      2 O         140.7976  138.3547  158.7225 O.2     1  UNL1       -0.2744
      3 N         143.2234  138.7053  157.8607 N.am    1  UNL1       -0.2836
      4 H         143.9105  138.5689  157.1690 H       1  UNL1        0.1549
      5 C         143.5553  139.4713  159.1069 C.ar    1  UNL1        0.0503
      6 C         143.6886  140.9646  159.0563 C.ar    1  UNL1        0.0144
      7 C         144.0205  141.7306  160.3024 C.ar    1  UNL1       -0.0002
      8 C         144.2192  141.0035  161.5993 C.ar    1  UNL1        0.0182
      9 C         144.0860  139.5103  161.6500 C.ar    1  UNL1       -0.0002
     10 C         143.7540  138.7442  160.4037 C.ar    1  UNL1        0.0144
     11 C         144.5512  141.7696  162.8454 C.3     1  UNL1        0.2827
     12 O         145.8499  142.2032  162.2329 O.3     1  UNL1       -0.3692
     13 H         146.3322  142.7637  162.8606 H       1  UNL1        0.2112
     14 C         144.8831  142.5356  164.0916 C.3     1  UNL1        0.4311
     15 F         145.2151  143.3017  165.3378 F       1  UNL1       -0.1669
     16 F         146.0522  141.6287  164.3377 F       1  UNL1       -0.1669
     17 F         144.2219  143.1223  164.0371 F       1  UNL1       -0.1669
     18 C         143.2525  141.3359  163.4580 C.3     1  UNL1        0.4311
     19 F         141.9537  140.9022  164.0706 F       1  UNL1       -0.1669
     20 F         143.5961  140.7875  164.0627 F       1  UNL1       -0.1669
     21 F         142.2145  142.0871  162.6781 F       1  UNL1       -0.1669
     22 C         141.5125  137.3809  156.4223 C.3     1  UNL1        0.1081
     23 C         142.7629  133.0762  156.0270 C.ar    1  UNL1        0.1056
     24 C         143.4510  133.9693  157.0164 C.ar    1  UNL1        0.0180
     25 C         143.0343  135.4042  157.1481 C.ar    1  UNL1       -0.0025
     26 C         141.9293  135.9460  156.2906 C.ar    1  UNL1       -0.0133
     27 C         141.2411  135.0530  155.3012 C.ar    1  UNL1       -0.0025
     28 C         141.6579  133.6181  155.1695 C.ar    1  UNL1        0.0180
     29 S         143.1796  131.6413  155.8953 S.O2    1  UNL1        0.0087
     30 O         141.7418  131.2362  155.7590 O.2     1  UNL1       -0.1686
     31 O         144.6175  132.0464  156.0316 O.2     1  UNL1       -0.1686
     32 C         144.8963  129.8609  155.0995 C.3     1  UNL1        0.0276
     33 C         143.5964  130.2064  155.7635 C.3     1  UNL1        0.1560
     34 C         140.7638  138.0498  155.3079 C.3     1  UNL1        0.0987
     35 C         139.3397  138.4752  155.5106 C.2     1  UNL1        0.2266
     36 O         138.2421  137.4529  155.4949 O.2     1  UNL1       -0.2748
     37 N         139.0132  139.9229  155.7289 N.am    1  UNL1       -0.2760
     38 C         137.5891  140.3483  155.9315 C.3     1  UNL1        0.1149
     39 C         140.1108  140.9452  155.7445 C.3     1  UNL1        0.1149
@<TRIPOS>BOND
     1    32    33    1
     2    33    29    1
     3    29    30    2
     4    29    31    2
     5    29    23    1
     6    23    24   ar
     7    24    25   ar
     8    25    26   ar
     9    26    22    1
    10    22    34    1
    11    34    35    1
    12    35    36    2
    13    35    37   am
    14    37    38    1
    15    37    39    1
    16    22     1    1
    17     1     2    2
    18     1     3   am
    19     3     5    1
    20     5     6   ar
    21     6     7   ar
    22     7     8   ar
    23     8    11    1
    24    11    12    1
    25    11    14    1
    26    14    15    1
    27    14    16    1
    28    14    17    1
    29    11    18    1
    30    18    19    1
    31    18    20    1
    32    18    21    1
    33     8     9   ar
    34     9    10   ar
    35    26    27   ar
    36    27    28   ar
    37    28    23   ar
    38    10     5   ar
    39     3     4    1
    40    12    13    1
@<TRIPOS>MOLECULE
*****
 39 40 0 0 0
SMALL
GASTEIGER

@<TRIPOS>ATOM
      1 C         140.7927  138.9374  158.9670 C.2     1  UNL1        0.2302
      2 O         141.7400  139.7718  159.7773 O.2     1  UNL1       -0.2744
      3 N         139.6151  138.2843  159.6278 N.am    1  UNL1       -0.2836
      4 H         138.9934  137.7366  159.0960 H       1  UNL1        0.1549
      5 C         139.3848  138.4656  161.0989 C.ar    1  UNL1        0.0503
      6 C         138.2749  139.3523  161.5805 C.ar    1  UNL1        0.0144
      7 C         138.0445  139.5336  163.0516 C.ar    1  UNL1       -0.0002
      8 C         138.9240  138.8282  164.0411 C.ar    1  UNL1        0.0182
      9 C         140.0339  137.9415  163.5594 C.ar    1  UNL1       -0.0002
     10 C         140.2642  137.7602  162.0883 C.ar    1  UNL1        0.0144
     11 C         138.6936  139.0096  165.5121 C.3     1  UNL1        0.2827
     12 O         138.5579  137.5245  165.6739 O.3     1  UNL1       -0.3692
     13 H         138.3882  137.3150  166.6057 H       1  UNL1        0.2112
     14 C         138.4632  139.1909  166.9831 C.3     1  UNL1        0.4311
     15 F         138.2327  139.3722  168.4542 F       1  UNL1       -0.1669
     16 F         137.1667  138.4449  166.8720 F       1  UNL1       -0.1669
     17 F         139.2064  139.6412  167.1542 F       1  UNL1       -0.1669
     18 C         138.8293  140.4946  165.3503 C.3     1  UNL1        0.4311
     19 F         138.9649  141.9797  165.1885 F       1  UNL1       -0.1669
     20 F         137.9756  140.6952  165.4750 F       1  UNL1       -0.1669
     21 F         140.2915  140.6988  165.0854 F       1  UNL1       -0.1669
     22 C         141.0231  138.7561  157.4959 C.3     1  UNL1        0.1081
     23 C         142.2054  134.7246  155.8836 C.ar    1  UNL1        0.1056
     24 C         141.0336  135.4533  155.2956 C.ar    1  UNL1        0.0180
     25 C         140.6395  136.7971  155.8330 C.ar    1  UNL1       -0.0025
     26 C         141.4172  137.4123  156.9585 C.ar    1  UNL1       -0.0133
     27 C         142.5891  136.6836  157.5465 C.ar    1  UNL1       -0.0025
     28 C         142.9832  135.3398  157.0091 C.ar    1  UNL1        0.0180
     29 S         142.5995  133.3808  155.3462 S.O2    1  UNL1        0.0087
     30 O         142.7226  133.9669  153.9709 O.2     1  UNL1       -0.1686
     31 O         142.4764  132.7947  156.7214 O.2     1  UNL1       -0.1686
     32 C         142.9545  131.7791  153.3316 C.3     1  UNL1        0.0276
     33 C         142.9936  132.0370  154.8087 C.3     1  UNL1        0.1560
     34 C         140.8594  139.9186  156.5623 C.3     1  UNL1        0.0987
     35 C         139.8487  140.9854  156.8629 C.2     1  UNL1        0.2266
     36 O         138.3886  140.7171  156.6482 O.2     1  UNL1       -0.2748
     37 N         140.2981  142.3206  157.3782 N.am    1  UNL1       -0.2760
     38 C         139.2873  143.3874  157.6788 C.3     1  UNL1        0.1149
     39 C         141.7581  142.5889  157.5929 C.3     1  UNL1        0.1149
@<TRIPOS>BOND
     1    32    33    1
     2    33    29    1
     3    29    30    2
     4    29    31    2
     5    29    23    1
     6    23    24   ar
     7    24    25   ar
     8    25    26   ar
     9    26    22    1
    10    22    34    1
    11    34    35    1
    12    35    36    2
    13    35    37   am
    14    37    38    1
    15    37    39    1
    16    22     1    1
    17     1     2    2
    18     1     3   am
    19     3     5    1
    20     5     6   ar
    21     6     7   ar
    22     7     8   ar
    23     8    11    1
    24    11    12    1
    25    11    14    1
    26    14    15    1
    27    14    16    1
    28    14    17    1
    29    11    18    1
    30    18    19    1
    31    18    20    1
    32    18    21    1
    33     8     9   ar
    34     9    10   ar
    35    26    27   ar
    36    27    28   ar
    37    28    23   ar
    38    10     5   ar
    39     3     4    1
    40    12    13    1
@<TRIPOS>MOLECULE
*****
 39 40 0 0 0
SMALL
GASTEIGER

@<TRIPOS>ATOM
      1 C         141.7733  141.5197  162.1550 C.2     1  UNL1        0.2302
      2 O         143.0300  141.3394  162.9540 O.2     1  UNL1       -0.2744
      3 N         140.4363  141.4254  162.8285 N.am    1  UNL1       -0.2836
      4 H         139.6115  141.5438  162.3042 H       1  UNL1        0.1549
      5 C         140.3560  141.1508  164.3010 C.ar    1  UNL1        0.0503
      6 C         140.3084  139.7366  164.7987 C.ar    1  UNL1        0.0144
      7 C         140.2281  139.4620  166.2711 C.ar    1  UNL1       -0.0002
      8 C         140.1954  140.6016  167.2460 C.ar    1  UNL1        0.0182
      9 C         140.2430  142.0159  166.7483 C.ar    1  UNL1       -0.0002
     10 C         140.3233  142.2904  165.2758 C.ar    1  UNL1        0.0144
     11 C         140.1152  140.3270  168.7184 C.3     1  UNL1        0.2827
     12 O         138.8296  139.5829  168.5095 O.3     1  UNL1       -0.3692
     13 H         138.5035  139.2551  169.3622 H       1  UNL1        0.2112
     14 C         140.0349  140.0524  170.1908 C.3     1  UNL1        0.4311
     15 F         139.9545  139.7778  171.6634 F       1  UNL1       -0.1669
     16 F         138.8354  140.9473  170.2924 F       1  UNL1       -0.1669
     17 F         140.7320  139.5081  170.2374 F       1  UNL1       -0.1669
     18 C         141.4007  141.0711  168.9273 C.3     1  UNL1        0.4311
     19 F         142.6863  141.8152  169.1362 F       1  UNL1       -0.1669
     20 F         141.0501  141.7850  169.3171 F       1  UNL1       -0.1669
     21 F         142.4454  140.1580  168.3574 F       1  UNL1       -0.1669
     22 C         141.8536  141.7943  160.6826 C.3     1  UNL1        0.1081
     23 C         141.8469  138.3784  157.7531 C.ar    1  UNL1        0.1056
     24 C         143.0666  139.2393  157.8985 C.ar    1  UNL1        0.0180
     25 C         143.0688  140.3779  158.8750 C.ar    1  UNL1       -0.0025
     26 C         141.8514  140.6556  159.7061 C.ar    1  UNL1       -0.0133
     27 C         140.6317  139.7947  159.5606 C.ar    1  UNL1       -0.0025
     28 C         140.6295  138.6561  158.5842 C.ar    1  UNL1        0.0180
     29 S         141.8446  137.2398  156.7766 S.O2    1  UNL1        0.0087
     30 O         143.3446  137.2337  156.7803 O.2     1  UNL1       -0.1686
     31 O         140.3447  137.2459  156.7729 O.2     1  UNL1       -0.1686
     32 C         142.4573  134.7866  156.1794 C.3     1  UNL1        0.0276
     33 C         141.8424  136.1011  155.8001 C.3     1  UNL1        0.1560
     34 C         141.9362  143.2075  160.1866 C.3     1  UNL1        0.0987
     35 C         140.8179  144.1672  160.4667 C.2     1  UNL1        0.2266
     36 O         139.6373  144.2330  159.5438 O.2     1  UNL1       -0.2748
     37 N         140.8803  145.0610  161.6698 N.am    1  UNL1       -0.2760
     38 C         139.7620  146.0207  161.9498 C.3     1  UNL1        0.1149
     39 C         142.0609  144.9951  162.5926 C.3     1  UNL1        0.1149
@<TRIPOS>BOND
     1    32    33    1
     2    33    29    1
     3    29    30    2
     4    29    31    2
     5    29    23    1
     6    23    24   ar
     7    24    25   ar
     8    25    26   ar
     9    26    22    1
    10    22    34    1
    11    34    35    1
    12    35    36    2
    13    35    37   am
    14    37    38    1
    15    37    39    1
    16    22     1    1
    17     1     2    2
    18     1     3   am
    19     3     5    1
    20     5     6   ar
    21     6     7   ar
    22     7     8   ar
    23     8    11    1
    24    11    12    1
    25    11    14    1
    26    14    15    1
    27    14    16    1
    28    14    17    1
    29    11    18    1
    30    18    19    1
    31    18    20    1
    32    18    21    1
    33     8     9   ar
    34     9    10   ar
    35    26    27   ar
    36    27    28   ar
    37    28    23   ar
    38    10     5   ar
    39     3     4    1
    40    12    13    1
@<TRIPOS>MOLECULE
*****
 39 40 0 0 0
SMALL
GASTEIGER

@<TRIPOS>ATOM
      1 C         141.8549  141.3668  161.8033 C.2     1  UNL1        0.2302
      2 O         140.4563  140.8732  162.0278 O.2     1  UNL1       -0.2744
      3 N         142.7844  141.5416  162.9675 N.am    1  UNL1       -0.2836
      4 H         143.7023  141.8656  162.8202 H       1  UNL1        0.1549
      5 C         142.3153  141.2228  164.3562 C.ar    1  UNL1        0.0503
      6 C         141.9901  142.3328  165.3113 C.ar    1  UNL1        0.0144
      7 C         141.5211  142.0141  166.6999 C.ar    1  UNL1       -0.0002
      8 C         141.3772  140.5853  167.1336 C.ar    1  UNL1        0.0182
      9 C         141.7024  139.4753  166.1785 C.ar    1  UNL1       -0.0002
     10 C         142.1715  139.7941  164.7898 C.ar    1  UNL1        0.0144
     11 C         140.9082  140.2666  168.5222 C.3     1  UNL1        0.2827
     12 O         139.5744  139.8508  167.9763 O.3     1  UNL1       -0.3692
     13 H         139.0009  139.5668  168.7052 H       1  UNL1        0.2112
     14 C         140.4391  139.9479  169.9109 C.3     1  UNL1        0.4311
     15 F         139.9700  139.6292  171.2996 F       1  UNL1       -0.1669
     16 F         139.4011  141.0257  169.8076 F       1  UNL1       -0.1669
     17 F         141.0137  139.2933  170.0714 F       1  UNL1       -0.1669
     18 C         142.2420  140.6824  169.0682 C.3     1  UNL1        0.4311
     19 F         143.5758  141.0982  169.6141 F       1  UNL1       -0.1669
     20 F         142.7088  140.0047  168.7405 F       1  UNL1       -0.1669
     21 F         141.9509  141.9545  169.8077 F       1  UNL1       -0.1669
     22 C         142.3239  141.6855  160.4147 C.3     1  UNL1        0.1081
     23 C         142.9376  138.3731  157.4312 C.ar    1  UNL1        0.1056
     24 C         142.1578  138.1168  158.6866 C.ar    1  UNL1        0.0180
     25 C         141.9532  139.2209  159.6811 C.ar    1  UNL1       -0.0025
     26 C         142.5284  140.5814  159.4202 C.ar    1  UNL1       -0.0133
     27 C         143.3082  140.8378  158.1647 C.ar    1  UNL1       -0.0025
     28 C         143.5128  139.7336  157.1702 C.ar    1  UNL1        0.0180
     29 S         143.1421  137.2690  156.4367 S.O2    1  UNL1        0.0087
     30 O         141.9023  136.5888  156.9368 O.2     1  UNL1       -0.1686
     31 O         144.3820  137.9491  155.9366 O.2     1  UNL1       -0.1686
     32 C         143.8323  134.8221  155.9016 C.3     1  UNL1        0.0276
     33 C         143.3467  136.1649  155.4422 C.3     1  UNL1        0.1560
     34 C         142.5883  143.1084  160.0205 C.3     1  UNL1        0.0987
     35 C         141.9974  144.2307  160.8214 C.2     1  UNL1        0.2266
     36 O         142.7369  144.7767  162.0067 O.2     1  UNL1       -0.2748
     37 N         140.6670  144.8071  160.4368 N.am    1  UNL1       -0.2760
     38 C         140.0761  145.9293  161.2377 C.3     1  UNL1        0.1149
     39 C         139.9274  144.2611  159.2515 C.3     1  UNL1        0.1149
@<TRIPOS>BOND
     1    32    33    1
     2    33    29    1
     3    29    30    2
     4    29    31    2
     5    29    23    1
     6    23    24   ar
     7    24    25   ar
     8    25    26   ar
     9    26    22    1
    10    22    34    1
    11    34    35    1
    12    35    36    2
    13    35    37   am
    14    37    38    1
    15    37    39    1
    16    22     1    1
    17     1     2    2
    18     1     3   am
    19     3     5    1
    20     5     6   ar
    21     6     7   ar
    22     7     8   ar
    23     8    11    1
    24    11    12    1
    25    11    14    1
    26    14    15    1
    27    14    16    1
    28    14    17    1
    29    11    18    1
    30    18    19    1
    31    18    20    1
    32    18    21    1
    33     8     9   ar
    34     9    10   ar
    35    26    27   ar
    36    27    28   ar
    37    28    23   ar
    38    10     5   ar
    39     3     4    1
    40    12    13    1
