@<TRIPOS>MOLECULE
*****
 39 42 0 0 0
SMALL
GASTEIGER

@<TRIPOS>ATOM
      1 C         139.0989  141.0452  160.7083 C.3     1  UNL1        0.0702
      2 C         139.3992  140.1734  159.5252 C.3     1  UNL1        0.0100
      3 C         139.5620  141.0595  158.3259 C.3     1  UNL1        0.0164
      4 C         139.3622  142.4789  158.7677 C.3     1  UNL1        0.0580
      5 C         139.0760  142.4701  160.2402 C.3     1  UNL1        0.0246
      6 N         139.4358  143.6939  157.8911 N.3     1  UNL1       -0.2739
      7 C         138.8272  143.6678  156.5204 C.3     1  UNL1        0.0724
      8 C         138.9007  144.8827  155.6438 C.3     1  UNL1        0.0218
      9 C         139.5829  146.1239  156.1379 C.3     1  UNL1        0.0266
     10 C         140.1916  146.1500  157.5087 C.3     1  UNL1        0.0218
     11 C         140.1181  144.9350  158.3853 C.3     1  UNL1        0.0724
     12 C         139.6565  147.3388  155.2613 C.ar    1  UNL1       -0.0033
     13 C         140.4142  147.2856  153.9678 C.ar    1  UNL1       -0.0011
     14 C         140.4877  148.5006  153.0912 C.ar    1  UNL1        0.0204
     15 C         139.8036  149.7687  153.5080 C.ar    1  UNL1        0.0989
     16 N         139.0458  149.8219  154.8016 N.ar    1  UNL1       -0.2426
     17 C         138.9723  148.6070  155.6782 C.ar    1  UNL1        0.0946
     18 C         138.7898  141.6454  162.0478 C.2     1  UNL1        0.2218
     19 O         137.3667  141.9113  162.4401 O.2     1  UNL1       -0.2751
     20 N         139.9039  141.9796  162.9950 N.am    1  UNL1       -0.3004
     21 H         140.8380  141.8051  162.7374 H       1  UNL1        0.1497
     22 C         139.5949  142.5798  164.3344 C.3     1  UNL1        0.1163
     23 C         139.5262  141.7045  165.5507 C.ar    1  UNL1       -0.0027
     24 C         140.1305  142.1675  166.8431 C.ar    1  UNL1        0.0012
     25 C         140.0618  141.2922  168.0592 C.ar    1  UNL1        0.0711
     26 C         139.3887  139.9539  167.9830 C.ar    1  UNL1        0.0077
     27 C         138.7844  139.4908  166.6906 C.ar    1  UNL1        0.0711
     28 C         138.8531  140.3661  165.4744 C.ar    1  UNL1        0.0012
     29 C         140.6662  141.7552  169.3517 C.3     1  UNL1        0.4186
     30 F         141.2705  142.2182  170.6441 F       1  UNL1       -0.1659
     31 F         142.0042  141.8725  168.6840 F       1  UNL1       -0.1659
     32 F         139.3281  141.6379  170.0194 F       1  UNL1       -0.1659
     33 C         138.1113  138.1525  166.6143 C.3     1  UNL1        0.4186
     34 F         137.4382  136.8142  166.5381 F       1  UNL1       -0.1659
     35 F         137.2246  138.5330  167.7628 F       1  UNL1       -0.1659
     36 F         138.9979  137.7720  165.4658 F       1  UNL1       -0.1659
     37 C         140.3317  139.1096  161.9262 C.3     1  UNL1        0.0005
     38 C         139.0571  139.7458  161.4564 C.3     1  UNL1        0.0082
     39 C         137.7408  139.0826  161.7349 C.3     1  UNL1        0.0005
@<TRIPOS>BOND
     1    37    38    1
     2    38    39    1
     3     1    38    1
     4     1    18    1
     5    18    19    2
     6    18    20   am
     7    20    22    1
     8    22    23    1
     9    23    24   ar
    10    24    25   ar
    11    25    29    1
    12    29    30    1
    13    29    31    1
    14    29    32    1
    15    25    26   ar
    16    26    27   ar
    17    27    33    1
    18    33    34    1
    19    33    35    1
    20    33    36    1
    21    27    28   ar
    22     1     2    1
    23     2     3    1
    24     3     4    1
    25     4     6    1
    26     6     7    1
    27     7     8    1
    28     8     9    1
    29     9    12    1
    30    12    13   ar
    31    13    14   ar
    32    14    15   ar
    33    15    16   ar
    34    16    17   ar
    35     9    10    1
    36    10    11    1
    37     4     5    1
    38     5     1    1
    39    28    23   ar
    40    11     6    1
    41    17    12   ar
    42    20    21    1
@<TRIPOS>MOLECULE
*****
 39 42 0 0 0
SMALL
GASTEIGER

@<TRIPOS>ATOM
      1 C         139.0605  141.0198  160.6856 C.3     1  UNL1        0.0702
      2 C         139.3473  140.1467  159.5002 C.3     1  UNL1        0.0100
      3 C         139.5136  141.0327  158.3014 C.3     1  UNL1        0.0164
      4 C         139.3296  142.4535  158.7458 C.3     1  UNL1        0.0580
      5 C         139.0496  142.4455  160.2195 C.3     1  UNL1        0.0246
      6 N         139.4113  143.6688  157.8705 N.3     1  UNL1       -0.2739
      7 C         140.2379  144.8457  158.2964 C.3     1  UNL1        0.0724
      8 C         140.3196  146.0611  157.4210 C.3     1  UNL1        0.0218
      9 C         139.5747  146.0995  156.1196 C.3     1  UNL1        0.0266
     10 C         138.7480  144.9224  155.6937 C.3     1  UNL1        0.0218
     11 C         138.6663  143.7071  156.5690 C.3     1  UNL1        0.0724
     12 C         139.6564  147.3148  155.2442 C.ar    1  UNL1       -0.0033
     13 C         140.4456  147.2692  153.9695 C.ar    1  UNL1       -0.0011
     14 C         140.5273  148.4845  153.0941 C.ar    1  UNL1        0.0204
     15 C         139.8198  149.7454  153.4935 C.ar    1  UNL1        0.0989
     16 N         139.0305  149.7910  154.7683 N.ar    1  UNL1       -0.2426
     17 C         138.9488  148.5757  155.6437 C.ar    1  UNL1        0.0946
     18 C         138.7630  141.6212  162.0272 C.2     1  UNL1        0.2218
     19 O         137.3426  141.8768  162.4362 O.2     1  UNL1       -0.2751
     20 N         139.8858  141.9671  162.9598 N.am    1  UNL1       -0.3004
     21 H         140.8181  141.7994  162.6913 H       1  UNL1        0.1497
     22 C         139.5883  142.5685  164.3013 C.3     1  UNL1        0.1163
     23 C         139.5019  141.6904  165.5144 C.ar    1  UNL1       -0.0027
     24 C         138.8475  140.3440  165.4205 C.ar    1  UNL1        0.0012
     25 C         138.7611  139.4659  166.6336 C.ar    1  UNL1        0.0711
     26 C         139.3291  139.9343  167.9405 C.ar    1  UNL1        0.0077
     27 C         139.9835  141.2807  168.0343 C.ar    1  UNL1        0.0711
     28 C         140.0699  142.1587  166.8213 C.ar    1  UNL1        0.0012
     29 C         138.1066  138.1194  166.5398 C.3     1  UNL1        0.4186
     30 F         137.4521  136.7730  166.4460 F       1  UNL1       -0.1659
     31 F         137.2695  138.4426  167.7418 F       1  UNL1       -0.1659
     32 F         138.9436  137.7963  165.3378 F       1  UNL1       -0.1659
     33 C         140.5516  141.7491  169.3412 C.3     1  UNL1        0.4186
     34 F         141.1196  142.2174  170.6481 F       1  UNL1       -0.1659
     35 F         141.7517  142.2932  168.6246 F       1  UNL1       -0.1659
     36 F         139.3514  141.2049  170.0579 F       1  UNL1       -0.1659
     37 C         137.7049  138.9959  161.5888 C.3     1  UNL1        0.0005
     38 C         139.0092  139.7199  161.4323 C.3     1  UNL1        0.0082
     39 C         140.2622  139.1440  162.0225 C.3     1  UNL1        0.0005
@<TRIPOS>BOND
     1    37    38    1
     2    38    39    1
     3     1    38    1
     4     1    18    1
     5    18    19    2
     6    18    20   am
     7    20    22    1
     8    22    23    1
     9    23    24   ar
    10    24    25   ar
    11    25    29    1
    12    29    30    1
    13    29    31    1
    14    29    32    1
    15    25    26   ar
    16    26    27   ar
    17    27    33    1
    18    33    34    1
    19    33    35    1
    20    33    36    1
    21    27    28   ar
    22     1     2    1
    23     2     3    1
    24     3     4    1
    25     4     6    1
    26     6     7    1
    27     7     8    1
    28     8     9    1
    29     9    12    1
    30    12    13   ar
    31    13    14   ar
    32    14    15   ar
    33    15    16   ar
    34    16    17   ar
    35     9    10    1
    36    10    11    1
    37     4     5    1
    38     5     1    1
    39    28    23   ar
    40    11     6    1
    41    17    12   ar
    42    20    21    1
@<TRIPOS>MOLECULE
*****
 39 42 0 0 0
SMALL
GASTEIGER

@<TRIPOS>ATOM
      1 C         143.5417  142.8125  163.3852 C.3     1  UNL1        0.0702
      2 C         144.2062  143.6139  162.3053 C.3     1  UNL1        0.0100
      3 C         144.1065  142.8388  161.0250 C.3     1  UNL1        0.0164
      4 C         143.3804  141.5584  161.3135 C.3     1  UNL1        0.0580
      5 C         143.0313  141.5421  162.7723 C.3     1  UNL1        0.0246
      6 N         143.0596  140.4831  160.3182 N.3     1  UNL1       -0.2739
      7 C         142.4896  140.8464  158.9791 C.3     1  UNL1        0.0724
      8 C         142.1689  139.7710  157.9837 C.3     1  UNL1        0.0218
      9 C         142.4182  138.3324  158.3274 C.3     1  UNL1        0.0266
     10 C         142.9882  137.9691  159.6666 C.3     1  UNL1        0.0218
     11 C         143.3089  139.0444  160.6619 C.3     1  UNL1        0.0724
     12 C         142.0974  137.2570  157.3320 C.ar    1  UNL1       -0.0033
     13 C         140.8997  137.3943  156.4395 C.ar    1  UNL1       -0.0011
     14 C         140.5790  136.3190  155.4441 C.ar    1  UNL1        0.0204
     15 C         141.4559  135.1064  155.3413 C.ar    1  UNL1        0.0989
     16 N         142.6537  134.9691  156.2339 N.ar    1  UNL1       -0.2426
     17 C         142.9745  136.0444  157.2293 C.ar    1  UNL1        0.0946
     18 C         142.9585  142.2522  164.6485 C.2     1  UNL1        0.2218
     19 O         141.7925  142.9325  165.3024 O.2     1  UNL1       -0.2751
     20 N         143.5412  141.0115  165.2578 N.am    1  UNL1       -0.3004
     21 H         144.3065  140.5649  164.8285 H       1  UNL1        0.1497
     22 C         142.9579  140.4511  166.5210 C.3     1  UNL1        0.1163
     23 C         141.5264  140.0042  166.5524 C.ar    1  UNL1       -0.0027
     24 C         140.9038  139.3954  165.3311 C.ar    1  UNL1        0.0012
     25 C         139.4723  138.9485  165.3625 C.ar    1  UNL1        0.0711
     26 C         138.6633  139.1105  166.6152 C.ar    1  UNL1        0.0077
     27 C         139.2859  139.7193  167.8366 C.ar    1  UNL1        0.0711
     28 C         140.7174  140.1662  167.8051 C.ar    1  UNL1        0.0012
     29 C         138.8496  138.3396  164.1411 C.3     1  UNL1        0.4186
     30 F         138.2270  137.7308  162.9198 F       1  UNL1       -0.1659
     31 F         139.0022  139.6426  163.4139 F       1  UNL1       -0.1659
     32 F         138.6970  137.0367  164.8684 F       1  UNL1       -0.1659
     33 C         138.4770  139.8813  169.0893 C.3     1  UNL1        0.4186
     34 F         137.6680  140.0433  170.3421 F       1  UNL1       -0.1659
     35 F         139.5122  140.8187  169.6366 F       1  UNL1       -0.1659
     36 F         137.4417  138.9439  168.5420 F       1  UNL1       -0.1659
     37 C         144.8461  143.7450  165.4294 C.3     1  UNL1        0.0005
     38 C         143.9302  143.9657  164.2623 C.3     1  UNL1        0.0082
     39 C         143.4026  145.3396  163.9722 C.3     1  UNL1        0.0005
@<TRIPOS>BOND
     1    37    38    1
     2    38    39    1
     3     1    38    1
     4     1    18    1
     5    18    19    2
     6    18    20   am
     7    20    22    1
     8    22    23    1
     9    23    24   ar
    10    24    25   ar
    11    25    29    1
    12    29    30    1
    13    29    31    1
    14    29    32    1
    15    25    26   ar
    16    26    27   ar
    17    27    33    1
    18    33    34    1
    19    33    35    1
    20    33    36    1
    21    27    28   ar
    22     1     2    1
    23     2     3    1
    24     3     4    1
    25     4     6    1
    26     6     7    1
    27     7     8    1
    28     8     9    1
    29     9    12    1
    30    12    13   ar
    31    13    14   ar
    32    14    15   ar
    33    15    16   ar
    34    16    17   ar
    35     9    10    1
    36    10    11    1
    37     4     5    1
    38     5     1    1
    39    28    23   ar
    40    11     6    1
    41    17    12   ar
    42    20    21    1
@<TRIPOS>MOLECULE
*****
 39 42 0 0 0
SMALL
GASTEIGER

@<TRIPOS>ATOM
      1 C         139.7226  139.9044  157.9252 C.3     1  UNL1        0.0702
      2 C         140.4771  140.5454  156.7984 C.3     1  UNL1        0.0100
      3 C         141.2690  139.4774  156.1040 C.3     1  UNL1        0.0164
      4 C         141.0039  138.1762  156.8017 C.3     1  UNL1        0.0580
      5 C         140.0482  138.4402  157.9273 C.3     1  UNL1        0.0246
      6 N         141.5913  136.8449  156.4377 N.3     1  UNL1       -0.2739
      7 C         142.8331  136.3598  157.1251 C.3     1  UNL1        0.0724
      8 C         143.4206  135.0285  156.7611 C.3     1  UNL1        0.0218
      9 C         142.7662  134.1822  155.7096 C.3     1  UNL1        0.0266
     10 C         141.5243  134.6674  155.0222 C.3     1  UNL1        0.0218
     11 C         140.9369  135.9987  155.3862 C.3     1  UNL1        0.0724
     12 C         143.3536  132.8509  155.3456 C.ar    1  UNL1       -0.0033
     13 C         142.8719  132.1277  154.1230 C.ar    1  UNL1       -0.0011
     14 C         143.4594  130.7963  153.7590 C.ar    1  UNL1        0.0204
     15 C         144.5285  130.1883  154.6176 C.ar    1  UNL1        0.0989
     16 N         145.0102  130.9116  155.8403 N.ar    1  UNL1       -0.2426
     17 C         144.4228  132.2429  156.2043 C.ar    1  UNL1        0.0946
     18 C         138.8625  139.5542  159.1031 C.2     1  UNL1        0.2218
     19 O         137.3969  139.8732  159.0828 O.2     1  UNL1       -0.2751
     20 N         139.4679  138.8850  160.3014 N.am    1  UNL1       -0.3004
     21 H         140.4298  138.6756  160.3147 H       1  UNL1        0.1497
     22 C         138.6077  138.5347  161.4792 C.3     1  UNL1        0.1163
     23 C         138.4381  139.5150  162.6020 C.ar    1  UNL1       -0.0027
     24 C         138.5589  139.0545  164.0244 C.ar    1  UNL1        0.0012
     25 C         138.3893  140.0347  165.1470 C.ar    1  UNL1        0.0711
     26 C         138.0988  141.4754  164.8472 C.ar    1  UNL1        0.0077
     27 C         137.9780  141.9360  163.4248 C.ar    1  UNL1        0.0711
     28 C         138.1477  140.9557  162.3022 C.ar    1  UNL1        0.0012
     29 C         138.5101  139.5742  166.5695 C.3     1  UNL1        0.4186
     30 F         138.6309  139.1137  167.9919 F       1  UNL1       -0.1659
     31 F         137.6765  138.3688  166.2500 F       1  UNL1       -0.1659
     32 F         139.3437  140.7796  166.8889 F       1  UNL1       -0.1659
     33 C         137.6876  143.3767  163.1250 C.3     1  UNL1        0.4186
     34 F         137.3971  144.8175  162.8252 F       1  UNL1       -0.1659
     35 F         137.6541  143.0648  161.6582 F       1  UNL1       -0.1659
     36 F         137.7211  143.6887  164.5918 F       1  UNL1       -0.1659
     37 C         139.7915  142.1168  159.2855 C.3     1  UNL1        0.0005
     38 C         139.2173  141.2954  158.1695 C.3     1  UNL1        0.0082
     39 C         138.1377  141.8651  157.2977 C.3     1  UNL1        0.0005
@<TRIPOS>BOND
     1    37    38    1
     2    38    39    1
     3     1    38    1
     4     1    18    1
     5    18    19    2
     6    18    20   am
     7    20    22    1
     8    22    23    1
     9    23    24   ar
    10    24    25   ar
    11    25    29    1
    12    29    30    1
    13    29    31    1
    14    29    32    1
    15    25    26   ar
    16    26    27   ar
    17    27    33    1
    18    33    34    1
    19    33    35    1
    20    33    36    1
    21    27    28   ar
    22     1     2    1
    23     2     3    1
    24     3     4    1
    25     4     6    1
    26     6     7    1
    27     7     8    1
    28     8     9    1
    29     9    12    1
    30    12    13   ar
    31    13    14   ar
    32    14    15   ar
    33    15    16   ar
    34    16    17   ar
    35     9    10    1
    36    10    11    1
    37     4     5    1
    38     5     1    1
    39    28    23   ar
    40    11     6    1
    41    17    12   ar
    42    20    21    1
@<TRIPOS>MOLECULE
*****
 39 42 0 0 0
SMALL
GASTEIGER

@<TRIPOS>ATOM
      1 C         140.2207  139.4713  158.4898 C.3     1  UNL1        0.0702
      2 C         140.4961  140.1089  157.1603 C.3     1  UNL1        0.0100
      3 C         141.0895  139.0661  156.2602 C.3     1  UNL1        0.0164
      4 C         141.1809  137.7839  157.0333 C.3     1  UNL1        0.0580
      5 C         140.6439  138.0344  158.4113 C.3     1  UNL1        0.0246
      6 N         141.7153  136.4802  156.5188 N.3     1  UNL1       -0.2739
      7 C         141.0025  135.7620  155.4115 C.3     1  UNL1        0.0724
      8 C         141.5369  134.4583  154.8970 C.3     1  UNL1        0.0218
      9 C         142.7842  133.8728  155.4897 C.3     1  UNL1        0.0266
     10 C         143.4971  134.5911  156.5970 C.3     1  UNL1        0.0218
     11 C         142.9627  135.8948  157.1115 C.3     1  UNL1        0.0724
     12 C         143.3187  132.5691  154.9752 C.ar    1  UNL1       -0.0033
     13 C         144.2733  131.7680  155.8101 C.ar    1  UNL1       -0.0011
     14 C         144.8077  130.4643  155.2955 C.ar    1  UNL1        0.0204
     15 C         144.3876  129.9617  153.9461 C.ar    1  UNL1        0.0989
     16 N         143.4329  130.7629  153.1112 N.ar    1  UNL1       -0.2426
     17 C         142.8985  132.0666  153.6257 C.ar    1  UNL1        0.0946
     18 C         139.8402  139.1187  159.8972 C.2     1  UNL1        0.2218
     19 O         140.9005  138.9856  160.9499 O.2     1  UNL1       -0.2751
     20 N         138.3993  138.8991  160.2520 N.am    1  UNL1       -0.3004
     21 H         137.7034  138.9864  159.5611 H       1  UNL1        0.1497
     22 C         138.0188  138.5464  161.6594 C.3     1  UNL1        0.1163
     23 C         138.0877  139.5866  162.7380 C.ar    1  UNL1       -0.0027
     24 C         137.8558  141.0303  162.4036 C.ar    1  UNL1        0.0012
     25 C         137.9247  142.0704  163.4822 C.ar    1  UNL1        0.0711
     26 C         138.2255  141.6668  164.8952 C.ar    1  UNL1        0.0077
     27 C         138.4574  140.2231  165.2297 C.ar    1  UNL1        0.0711
     28 C         138.3885  139.1830  164.1511 C.ar    1  UNL1        0.0012
     29 C         137.6928  143.5142  163.1478 C.3     1  UNL1        0.4186
     30 F         137.4609  144.9579  162.8135 F       1  UNL1       -0.1659
     31 F         137.5683  143.8324  164.6084 F       1  UNL1       -0.1659
     32 F         137.8174  143.1960  161.6873 F       1  UNL1       -0.1659
     33 C         138.7582  139.8195  166.6427 C.3     1  UNL1        0.4186
     34 F         139.0590  139.4159  168.0557 F       1  UNL1       -0.1659
     35 F         139.8881  140.8052  166.6837 F       1  UNL1       -0.1659
     36 F         137.6283  138.8338  166.6017 F       1  UNL1       -0.1659
     37 C         138.3793  141.3002  158.3718 C.3     1  UNL1        0.0005
     38 C         139.7180  140.8345  158.8626 C.3     1  UNL1        0.0082
     39 C         140.5540  141.7320  159.7261 C.3     1  UNL1        0.0005
@<TRIPOS>BOND
     1    37    38    1
     2    38    39    1
     3     1    38    1
     4     1    18    1
     5    18    19    2
     6    18    20   am
     7    20    22    1
     8    22    23    1
     9    23    24   ar
    10    24    25   ar
    11    25    29    1
    12    29    30    1
    13    29    31    1
    14    29    32    1
    15    25    26   ar
    16    26    27   ar
    17    27    33    1
    18    33    34    1
    19    33    35    1
    20    33    36    1
    21    27    28   ar
    22     1     2    1
    23     2     3    1
    24     3     4    1
    25     4     6    1
    26     6     7    1
    27     7     8    1
    28     8     9    1
    29     9    12    1
    30    12    13   ar
    31    13    14   ar
    32    14    15   ar
    33    15    16   ar
    34    16    17   ar
    35     9    10    1
    36    10    11    1
    37     4     5    1
    38     5     1    1
    39    28    23   ar
    40    11     6    1
    41    17    12   ar
    42    20    21    1
@<TRIPOS>MOLECULE
*****
 39 42 0 0 0
SMALL
GASTEIGER

@<TRIPOS>ATOM
      1 C         143.5236  142.7250  163.0454 C.3     1  UNL1        0.0702
      2 C         144.6014  143.3147  162.1848 C.3     1  UNL1        0.0100
      3 C         144.6738  142.5136  160.9188 C.3     1  UNL1        0.0164
      4 C         143.6409  141.4288  160.9968 C.3     1  UNL1        0.0580
      5 C         142.9300  141.5595  162.3112 C.3     1  UNL1        0.0246
      6 N         143.3669  140.3949  159.9452 N.3     1  UNL1       -0.2739
      7 C         143.6260  140.7069  158.5011 C.3     1  UNL1        0.0724
      8 C         143.3520  139.6729  157.4495 C.3     1  UNL1        0.0218
      9 C         142.8189  138.3269  157.8420 C.3     1  UNL1        0.0266
     10 C         142.5598  138.0149  159.2862 C.3     1  UNL1        0.0218
     11 C         142.8338  139.0488  160.3378 C.3     1  UNL1        0.0724
     12 C         142.5449  137.2930  156.7904 C.ar    1  UNL1       -0.0033
     13 C         143.6847  136.6322  156.0733 C.ar    1  UNL1       -0.0011
     14 C         143.4107  135.5983  155.0217 C.ar    1  UNL1        0.0204
     15 C         141.9969  135.2251  154.6872 C.ar    1  UNL1        0.0989
     16 N         140.8570  135.8859  155.4043 N.ar    1  UNL1       -0.2426
     17 C         141.1310  136.9198  156.4559 C.ar    1  UNL1        0.0946
     18 C         142.5264  142.3632  164.1058 C.2     1  UNL1        0.2218
     19 O         141.2157  143.0886  164.1816 O.2     1  UNL1       -0.2751
     20 N         142.8398  141.2758  165.0905 N.am    1  UNL1       -0.3004
     21 H         143.7001  140.7996  165.0407 H       1  UNL1        0.1497
     22 C         141.8426  140.9140  166.1509 C.3     1  UNL1        0.1163
     23 C         140.6725  140.0383  165.8127 C.ar    1  UNL1       -0.0027
     24 C         139.6885  139.6568  166.8785 C.ar    1  UNL1        0.0012
     25 C         138.5185  138.7812  166.5402 C.ar    1  UNL1        0.0711
     26 C         138.3325  138.2872  165.1362 C.ar    1  UNL1        0.0077
     27 C         139.3166  138.6688  164.0704 C.ar    1  UNL1        0.0711
     28 C         140.4866  139.5444  164.4086 C.ar    1  UNL1        0.0012
     29 C         137.5344  138.3996  167.6061 C.3     1  UNL1        0.4186
     30 F         136.5503  138.0179  168.6718 F       1  UNL1       -0.1659
     31 F         137.0303  137.2829  166.7408 F       1  UNL1       -0.1659
     32 F         138.0384  139.5163  168.4714 F       1  UNL1       -0.1659
     33 C         139.1306  138.1748  162.6663 C.3     1  UNL1        0.4186
     34 F         138.9447  137.6808  161.2622 F       1  UNL1       -0.1659
     35 F         139.8127  139.4042  162.1434 F       1  UNL1       -0.1659
     36 F         138.4486  136.9454  163.1892 F       1  UNL1       -0.1659
     37 C         143.4384  145.2196  163.7660 C.3     1  UNL1        0.0005
     38 C         143.9088  143.8149  164.0013 C.3     1  UNL1        0.0082
     39 C         144.7643  143.5001  165.1925 C.3     1  UNL1        0.0005
@<TRIPOS>BOND
     1    37    38    1
     2    38    39    1
     3     1    38    1
     4     1    18    1
     5    18    19    2
     6    18    20   am
     7    20    22    1
     8    22    23    1
     9    23    24   ar
    10    24    25   ar
    11    25    29    1
    12    29    30    1
    13    29    31    1
    14    29    32    1
    15    25    26   ar
    16    26    27   ar
    17    27    33    1
    18    33    34    1
    19    33    35    1
    20    33    36    1
    21    27    28   ar
    22     1     2    1
    23     2     3    1
    24     3     4    1
    25     4     6    1
    26     6     7    1
    27     7     8    1
    28     8     9    1
    29     9    12    1
    30    12    13   ar
    31    13    14   ar
    32    14    15   ar
    33    15    16   ar
    34    16    17   ar
    35     9    10    1
    36    10    11    1
    37     4     5    1
    38     5     1    1
    39    28    23   ar
    40    11     6    1
    41    17    12   ar
    42    20    21    1
@<TRIPOS>MOLECULE
*****
 39 42 0 0 0
SMALL
GASTEIGER

@<TRIPOS>ATOM
      1 C         143.3213  142.6449  162.7135 C.3     1  UNL1        0.0702
      2 C         144.5437  143.0790  161.9604 C.3     1  UNL1        0.0100
      3 C         144.6629  142.2209  160.7360 C.3     1  UNL1        0.0164
      4 C         143.5141  141.2564  160.7322 C.3     1  UNL1        0.0580
      5 C         142.6849  141.5184  161.9544 C.3     1  UNL1        0.0246
      6 N         143.2423  140.2131  159.6893 N.3     1  UNL1       -0.2739
      7 C         143.0838  138.7761  160.0894 C.3     1  UNL1        0.0724
      8 C         142.8119  137.7328  159.0465 C.3     1  UNL1        0.0218
      9 C         142.6985  138.1264  157.6035 C.3     1  UNL1        0.0266
     10 C         142.8570  139.5634  157.2035 C.3     1  UNL1        0.0218
     11 C         143.1288  140.6068  158.2463 C.3     1  UNL1        0.0724
     12 C         142.4266  137.0831  156.5607 C.ar    1  UNL1       -0.0033
     13 C         143.5540  136.2602  156.0113 C.ar    1  UNL1       -0.0011
     14 C         143.2821  135.2169  154.9685 C.ar    1  UNL1        0.0204
     15 C         141.8829  134.9964  154.4750 C.ar    1  UNL1        0.0989
     16 N         140.7554  135.8194  155.0244 N.ar    1  UNL1       -0.2426
     17 C         141.0273  136.8627  156.0673 C.ar    1  UNL1        0.0946
     18 C         142.1820  142.4371  163.6668 C.2     1  UNL1        0.2218
     19 O         141.2949  143.5884  164.0376 O.2     1  UNL1       -0.2751
     20 N         141.9299  141.0780  164.2495 N.am    1  UNL1       -0.3004
     21 H         142.5121  140.3224  164.0061 H       1  UNL1        0.1497
     22 C         140.7907  140.8703  165.2028 C.3     1  UNL1        0.1163
     23 C         141.0157  141.0005  166.6802 C.ar    1  UNL1       -0.0027
     24 C         140.6357  142.2672  167.3880 C.ar    1  UNL1        0.0012
     25 C         140.8608  142.3973  168.8653 C.ar    1  UNL1        0.0711
     26 C         141.4659  141.2607  169.6347 C.ar    1  UNL1        0.0077
     27 C         141.8459  139.9940  168.9269 C.ar    1  UNL1        0.0711
     28 C         141.6208  139.8639  167.4497 C.ar    1  UNL1        0.0012
     29 C         140.4808  143.6641  169.5731 C.3     1  UNL1        0.4186
     30 F         140.1008  144.9308  170.2809 F       1  UNL1       -0.1659
     31 F         139.8462  144.1770  168.3145 F       1  UNL1       -0.1659
     32 F         141.1154  143.1511  170.8318 F       1  UNL1       -0.1659
     33 C         142.4509  138.8575  169.6964 C.3     1  UNL1        0.4186
     34 F         143.0560  137.7209  170.4659 F       1  UNL1       -0.1659
     35 F         141.7938  139.3559  170.9493 F       1  UNL1       -0.1659
     36 F         143.1080  138.3591  168.4435 F       1  UNL1       -0.1659
     37 C         144.2707  143.3705  165.0203 C.3     1  UNL1        0.0005
     38 C         143.7194  143.7278  163.6719 C.3     1  UNL1        0.0082
     39 C         143.5663  145.1681  163.2819 C.3     1  UNL1        0.0005
@<TRIPOS>BOND
     1    37    38    1
     2    38    39    1
     3     1    38    1
     4     1    18    1
     5    18    19    2
     6    18    20   am
     7    20    22    1
     8    22    23    1
     9    23    24   ar
    10    24    25   ar
    11    25    29    1
    12    29    30    1
    13    29    31    1
    14    29    32    1
    15    25    26   ar
    16    26    27   ar
    17    27    33    1
    18    33    34    1
    19    33    35    1
    20    33    36    1
    21    27    28   ar
    22     1     2    1
    23     2     3    1
    24     3     4    1
    25     4     6    1
    26     6     7    1
    27     7     8    1
    28     8     9    1
    29     9    12    1
    30    12    13   ar
    31    13    14   ar
    32    14    15   ar
    33    15    16   ar
    34    16    17   ar
    35     9    10    1
    36    10    11    1
    37     4     5    1
    38     5     1    1
    39    28    23   ar
    40    11     6    1
    41    17    12   ar
    42    20    21    1
@<TRIPOS>MOLECULE
*****
 39 42 0 0 0
SMALL
GASTEIGER

@<TRIPOS>ATOM
      1 C         143.3959  142.6370  162.7499 C.3     1  UNL1        0.0702
      2 C         144.6979  142.9411  162.0698 C.3     1  UNL1        0.0100
      3 C         144.8105  142.0530  160.8662 C.3     1  UNL1        0.0164
      4 C         143.5782  141.2001  160.8024 C.3     1  UNL1        0.0580
      5 C         142.7040  141.5611  161.9667 C.3     1  UNL1        0.0246
      6 N         143.2737  140.1676  159.7579 N.3     1  UNL1       -0.2739
      7 C         143.0463  140.5844  158.3351 C.3     1  UNL1        0.0724
      8 C         142.7417  139.5519  157.2905 C.3     1  UNL1        0.0218
      9 C         142.6646  138.1024  157.6688 C.3     1  UNL1        0.0266
     10 C         142.8920  137.6856  159.0917 C.3     1  UNL1        0.0218
     11 C         143.1966  138.7181  160.1362 C.3     1  UNL1        0.0724
     12 C         142.3600  137.0699  156.6242 C.ar    1  UNL1       -0.0033
     13 C         140.9768  136.9659  156.0534 C.ar    1  UNL1       -0.0011
     14 C         140.6722  135.9334  155.0088 C.ar    1  UNL1        0.0204
     15 C         141.7509  135.0048  154.5351 C.ar    1  UNL1        0.0989
     16 N         143.1342  135.1089  155.1060 N.ar    1  UNL1       -0.2426
     17 C         143.4387  136.1414  156.1506 C.ar    1  UNL1        0.0946
     18 C         142.1858  142.5543  163.6323 C.2     1  UNL1        0.2218
     19 O         141.3479  143.7751  163.8726 O.2     1  UNL1       -0.2751
     20 N         141.8135  141.2508  164.2746 N.am    1  UNL1       -0.3004
     21 H         142.3635  140.4496  164.1169 H       1  UNL1        0.1497
     22 C         140.6034  141.1681  165.1570 C.3     1  UNL1        0.1163
     23 C         140.7638  141.1240  166.6478 C.ar    1  UNL1       -0.0027
     24 C         139.6491  140.6054  167.5070 C.ar    1  UNL1        0.0012
     25 C         139.8096  140.5612  168.9977 C.ar    1  UNL1        0.0711
     26 C         141.0847  141.0357  169.6292 C.ar    1  UNL1        0.0077
     27 C         142.1995  141.5544  168.7699 C.ar    1  UNL1        0.0711
     28 C         142.0390  141.5985  167.2792 C.ar    1  UNL1        0.0012
     29 C         138.6948  140.0426  169.8571 C.3     1  UNL1        0.4186
     30 F         137.5801  139.5240  170.7164 F       1  UNL1       -0.1659
     31 F         139.3924  140.5655  171.0776 F       1  UNL1       -0.1659
     32 F         137.9972  139.5196  168.6365 F       1  UNL1       -0.1659
     33 C         143.4747  142.0289  169.4014 C.3     1  UNL1        0.4186
     34 F         144.7498  142.5034  170.0329 F       1  UNL1       -0.1659
     35 F         143.1167  141.3071  170.6666 F       1  UNL1       -0.1659
     36 F         143.8326  142.7507  168.1362 F       1  UNL1       -0.1659
     37 C         143.6922  145.1452  163.3591 C.3     1  UNL1        0.0005
     38 C         143.8349  143.6957  163.7177 C.3     1  UNL1        0.0082
     39 C         144.4166  143.3048  165.0439 C.3     1  UNL1        0.0005
@<TRIPOS>BOND
     1    37    38    1
     2    38    39    1
     3     1    38    1
     4     1    18    1
     5    18    19    2
     6    18    20   am
     7    20    22    1
     8    22    23    1
     9    23    24   ar
    10    24    25   ar
    11    25    29    1
    12    29    30    1
    13    29    31    1
    14    29    32    1
    15    25    26   ar
    16    26    27   ar
    17    27    33    1
    18    33    34    1
    19    33    35    1
    20    33    36    1
    21    27    28   ar
    22     1     2    1
    23     2     3    1
    24     3     4    1
    25     4     6    1
    26     6     7    1
    27     7     8    1
    28     8     9    1
    29     9    12    1
    30    12    13   ar
    31    13    14   ar
    32    14    15   ar
    33    15    16   ar
    34    16    17   ar
    35     9    10    1
    36    10    11    1
    37     4     5    1
    38     5     1    1
    39    28    23   ar
    40    11     6    1
    41    17    12   ar
    42    20    21    1
@<TRIPOS>MOLECULE
*****
 39 42 0 0 0
SMALL
GASTEIGER

@<TRIPOS>ATOM
      1 C         143.3142  142.6928  162.6629 C.3     1  UNL1        0.0702
      2 C         144.5874  143.1660  162.0264 C.3     1  UNL1        0.0100
      3 C         144.7810  142.3996  160.7517 C.3     1  UNL1        0.0164
      4 C         143.6276  141.4527  160.6002 C.3     1  UNL1        0.0580
      5 C         142.7210  141.6340  161.7815 C.3     1  UNL1        0.0246
      6 N         143.4175  140.4931  159.4666 N.3     1  UNL1       -0.2739
      7 C         143.9264  140.8284  158.0961 C.3     1  UNL1        0.0724
      8 C         143.7164  139.8688  156.9625 C.3     1  UNL1        0.0218
      9 C         142.9974  138.5738  157.1995 C.3     1  UNL1        0.0266
     10 C         142.4885  138.2385  158.5702 C.3     1  UNL1        0.0218
     11 C         142.6986  139.1981  159.7037 C.3     1  UNL1        0.0724
     12 C         142.7874  137.6142  156.0659 C.ar    1  UNL1       -0.0033
     13 C         141.7308  137.8885  155.0371 C.ar    1  UNL1       -0.0011
     14 C         141.5208  136.9289  153.9035 C.ar    1  UNL1        0.0204
     15 C         142.3673  135.6950  153.7987 C.ar    1  UNL1        0.0989
     16 N         143.4239  135.4207  154.8276 N.ar    1  UNL1       -0.2426
     17 C         143.6340  136.3803  155.9612 C.ar    1  UNL1        0.0946
     18 C         142.1125  142.4295  163.5211 C.2     1  UNL1        0.2218
     19 O         141.1056  143.5164  163.7555 O.2     1  UNL1       -0.2751
     20 N         141.9176  141.0793  164.1449 N.am    1  UNL1       -0.3004
     21 H         142.5785  140.3660  163.9910 H       1  UNL1        0.1497
     22 C         140.7160  140.8160  165.0031 C.3     1  UNL1        0.1163
     23 C         140.8295  140.8936  166.4968 C.ar    1  UNL1       -0.0027
     24 C         142.0968  141.3892  167.1279 C.ar    1  UNL1        0.0012
     25 C         142.2103  141.4668  168.6216 C.ar    1  UNL1        0.0711
     26 C         141.0566  141.0487  169.4841 C.ar    1  UNL1        0.0077
     27 C         139.7893  140.5531  168.8531 C.ar    1  UNL1        0.0711
     28 C         139.6758  140.4755  167.3594 C.ar    1  UNL1        0.0012
     29 C         143.4777  141.9625  169.2527 C.3     1  UNL1        0.4186
     30 F         144.7449  142.4581  169.8838 F       1  UNL1       -0.1659
     31 F         143.7261  142.8418  168.0632 F       1  UNL1       -0.1659
     32 F         143.2292  141.0831  170.4422 F       1  UNL1       -0.1659
     33 C         138.6355  140.1350  169.7156 C.3     1  UNL1        0.4186
     34 F         137.4818  139.7170  170.5782 F       1  UNL1       -0.1659
     35 F         139.2651  140.8224  170.8909 F       1  UNL1       -0.1659
     36 F         138.0060  139.4477  168.5404 F       1  UNL1       -0.1659
     37 C         144.3196  143.2501  164.9927 C.3     1  UNL1        0.0005
     38 C         143.6561  143.6966  163.7237 C.3     1  UNL1        0.0082
     39 C         143.3346  145.1469  163.5156 C.3     1  UNL1        0.0005
@<TRIPOS>BOND
     1    37    38    1
     2    38    39    1
     3     1    38    1
     4     1    18    1
     5    18    19    2
     6    18    20   am
     7    20    22    1
     8    22    23    1
     9    23    24   ar
    10    24    25   ar
    11    25    29    1
    12    29    30    1
    13    29    31    1
    14    29    32    1
    15    25    26   ar
    16    26    27   ar
    17    27    33    1
    18    33    34    1
    19    33    35    1
    20    33    36    1
    21    27    28   ar
    22     1     2    1
    23     2     3    1
    24     3     4    1
    25     4     6    1
    26     6     7    1
    27     7     8    1
    28     8     9    1
    29     9    12    1
    30    12    13   ar
    31    13    14   ar
    32    14    15   ar
    33    15    16   ar
    34    16    17   ar
    35     9    10    1
    36    10    11    1
    37     4     5    1
    38     5     1    1
    39    28    23   ar
    40    11     6    1
    41    17    12   ar
    42    20    21    1
