@<TRIPOS>MOLECULE
*****
 36 40 0 0 0
SMALL
GASTEIGER

@<TRIPOS>ATOM
      1 C         140.8478  141.4880  168.0244 C.3     1  UNL1        0.0705
      2 C         140.7553  141.9900  169.4349 C.3     1  UNL1        0.0082
      3 C         139.7029  141.4483  170.3563 C.3     1  UNL1        0.0005
      4 C         138.7429  140.4047  169.8673 C.3     1  UNL1        0.0005
      5 C         138.8354  139.9027  168.4568 C.3     1  UNL1        0.0095
      6 C         139.8878  140.4444  167.5354 C.3     1  UNL1        0.0840
      7 C         139.9803  139.9424  166.1249 C.2     1  UNL1        0.2261
      8 O         139.0942  140.5226  165.0627 O.2     1  UNL1       -0.2748
      9 N         140.9589  138.8602  165.7766 N.am    1  UNL1       -0.2814
     10 H         141.5405  138.4794  166.4737 H       1  UNL1        0.1549
     11 C         141.0514  138.3582  164.3661 C.ar    1  UNL1        0.0935
     12 C         139.9653  137.6544  163.6078 C.ar    1  UNL1        0.1364
     13 N         140.4889  137.3331  162.2393 N.ar    1  UNL1       -0.1662
     14 N         141.8985  137.8385  162.1519 N.ar    1  UNL1       -0.2434
     15 C         142.2462  138.4720  163.4663 C.ar    1  UNL1        0.1460
     16 C         143.6057  139.0707  163.6741 C.2     1  UNL1        0.2646
     17 O         143.9533  139.7042  164.9886 O.2     1  UNL1       -0.2685
     18 N         144.6176  139.0358  162.5675 N.am    1  UNL1       -0.2976
     19 C         144.2700  138.4022  161.2530 C.3     1  UNL1        0.1161
     20 C         142.9105  137.8036  161.0452 C.3     1  UNL1        0.1488
     21 H         145.5100  139.4287  162.7038 H       1  UNL1        0.1499
     22 C         141.9002  142.0297  167.1030 C.2     1  UNL1        0.1731
     23 O         143.3520  141.8290  167.4223 O.2     1  UNL1       -0.2913
     24 C         140.7019  144.2572  163.3811 C.ar    1  UNL1        0.0194
     25 C         141.9685  143.4539  163.3994 C.ar    1  UNL1        0.0016
     26 C         142.3680  142.7114  164.6399 C.ar    1  UNL1        0.0029
     27 C         141.5008  142.7722  165.8624 C.ar    1  UNL1        0.0347
     28 C         140.2342  143.5755  165.8442 C.ar    1  UNL1        0.0029
     29 C         139.8346  144.3181  164.6035 C.ar    1  UNL1        0.0016
     30 C         140.3425  145.7851  158.3396 C.3     1  UNL1        0.0515
     31 C         140.1373  145.7020  159.8231 C.ar    1  UNL1        0.0535
     32 C         140.7949  144.7237  160.7508 C.ar    1  UNL1        0.0349
     33 C         140.3025  144.9997  162.1405 C.ar    1  UNL1        0.1018
     34 N         139.3404  146.1485  162.0718 N.ar    1  UNL1       -0.1730
     35 N         139.2383  146.5826  160.6395 N.ar    1  UNL1       -0.2798
     36 H         138.6794  147.3165  160.2957 H       1  UNL1        0.1886
@<TRIPOS>BOND
     1    30    31    1
     2    31    32   ar
     3    32    33   ar
     4    33    24    1
     5    24    25   ar
     6    25    26   ar
     7    26    27   ar
     8    27    22    1
     9    22    23    2
    10     1    22    1
    11     1     2    1
    12     2     3    1
    13     3     4    1
    14     4     5    1
    15     5     6    1
    16     6     7    1
    17     7     8    2
    18     7     9   am
    19     9    11    1
    20    11    12   ar
    21    12    13   ar
    22    13    14   ar
    23    14    15   ar
    24    15    16    1
    25    16    17    2
    26    16    18   am
    27    18    19    1
    28    19    20    1
    29    27    28   ar
    30    28    29   ar
    31    33    34   ar
    32    34    35   ar
    33    35    31   ar
    34    29    24   ar
    35     6     1    1
    36    15    11   ar
    37    20    14    1
    38     9    10    1
    39    18    21    1
    40    35    36    1
@<TRIPOS>MOLECULE
*****
 36 40 0 0 0
SMALL
GASTEIGER

@<TRIPOS>ATOM
      1 C         140.8466  141.6020  168.1347 C.3     1  UNL1        0.0705
      2 C         140.2425  141.7163  169.5030 C.3     1  UNL1        0.0082
      3 C         141.0970  142.1165  170.6690 C.3     1  UNL1        0.0005
      4 C         142.5555  142.4025  170.4670 C.3     1  UNL1        0.0005
      5 C         143.1596  142.2882  169.0987 C.3     1  UNL1        0.0095
      6 C         142.3051  141.8880  167.9327 C.3     1  UNL1        0.0840
      7 C         142.9092  141.7737  166.5644 C.2     1  UNL1        0.2261
      8 O         143.2047  143.0108  165.7693 O.2     1  UNL1       -0.2748
      9 N         143.2178  140.4222  165.9913 N.am    1  UNL1       -0.2814
     10 H         143.0238  139.6102  166.5131 H       1  UNL1        0.1549
     11 C         143.8218  140.3079  164.6231 C.ar    1  UNL1        0.0935
     12 C         144.9647  141.1221  164.0931 C.ar    1  UNL1        0.1364
     13 N         145.2383  140.6767  162.6871 N.ar    1  UNL1       -0.1662
     14 N         144.2645  139.5873  162.3481 N.ar    1  UNL1       -0.2434
     15 C         143.3890  139.3594  163.5446 C.ar    1  UNL1        0.1460
     16 C         142.3109  138.3176  163.4976 C.2     1  UNL1        0.2646
     17 O         141.4355  138.0896  164.6941 O.2     1  UNL1       -0.2685
     18 N         142.1083  137.5037  162.2541 N.am    1  UNL1       -0.2976
     19 C         142.9837  137.7316  161.0575 C.3     1  UNL1        0.1161
     20 C         144.0618  138.7735  161.1046 C.3     1  UNL1        0.1488
     21 H         141.4006  136.8199  162.2232 H       1  UNL1        0.1499
     22 C         139.9921  141.2018  166.9687 C.2     1  UNL1        0.1731
     23 O         139.1708  139.9485  167.0359 O.2     1  UNL1       -0.2913
     24 C         139.8929  143.7611  163.2686 C.ar    1  UNL1        0.0194
     25 C         139.7334  144.3908  164.6206 C.ar    1  UNL1        0.0016
     26 C         139.7665  143.5378  165.8540 C.ar    1  UNL1        0.0029
     27 C         139.9591  142.0549  165.7354 C.ar    1  UNL1        0.0347
     28 C         140.1186  141.4252  164.3833 C.ar    1  UNL1        0.0029
     29 C         140.0855  142.2782  163.1499 C.ar    1  UNL1        0.0016
     30 C         140.6999  145.5194  158.3556 C.3     1  UNL1        0.0515
     31 C         140.2308  145.4224  159.7770 C.ar    1  UNL1        0.0535
     32 C         140.5230  144.2991  160.7272 C.ar    1  UNL1        0.0349
     33 C         139.8598  144.6142  162.0353 C.ar    1  UNL1        0.1018
     34 N         139.1578  145.9321  161.8935 N.ar    1  UNL1       -0.1730
     35 N         139.3870  146.4317  160.4978 N.ar    1  UNL1       -0.2798
     36 H         139.0440  147.2741  160.1210 H       1  UNL1        0.1886
@<TRIPOS>BOND
     1    30    31    1
     2    31    32   ar
     3    32    33   ar
     4    33    24    1
     5    24    25   ar
     6    25    26   ar
     7    26    27   ar
     8    27    22    1
     9    22    23    2
    10     1    22    1
    11     1     2    1
    12     2     3    1
    13     3     4    1
    14     4     5    1
    15     5     6    1
    16     6     7    1
    17     7     8    2
    18     7     9   am
    19     9    11    1
    20    11    12   ar
    21    12    13   ar
    22    13    14   ar
    23    14    15   ar
    24    15    16    1
    25    16    17    2
    26    16    18   am
    27    18    19    1
    28    19    20    1
    29    27    28   ar
    30    28    29   ar
    31    33    34   ar
    32    34    35   ar
    33    35    31   ar
    34    29    24   ar
    35     6     1    1
    36    15    11   ar
    37    20    14    1
    38     9    10    1
    39    18    21    1
    40    35    36    1
@<TRIPOS>MOLECULE
*****
 36 40 0 0 0
SMALL
GASTEIGER

@<TRIPOS>ATOM
      1 C         140.9523  141.6431  168.1288 C.3     1  UNL1        0.0705
      2 C         140.6364  142.3494  169.4139 C.3     1  UNL1        0.0082
      3 C         139.5811  141.8038  170.3297 C.3     1  UNL1        0.0005
      4 C         138.8418  140.5520  169.9606 C.3     1  UNL1        0.0005
      5 C         139.1577  139.8457  168.6756 C.3     1  UNL1        0.0095
      6 C         140.2130  140.3913  167.7597 C.3     1  UNL1        0.0840
      7 C         140.5289  139.6850  166.4747 C.2     1  UNL1        0.2261
      8 O         141.8963  139.1102  166.2513 O.2     1  UNL1       -0.2748
      9 N         139.4775  139.5536  165.4129 N.am    1  UNL1       -0.2814
     10 H         138.5800  139.9308  165.5595 H       1  UNL1        0.1549
     11 C         139.7934  138.8473  164.1278 C.ar    1  UNL1        0.0935
     12 C         140.6707  137.6398  163.9780 C.ar    1  UNL1        0.1364
     13 N         140.7070  137.2708  162.5246 N.ar    1  UNL1       -0.1662
     14 N         139.8521  138.2502  161.7761 N.ar    1  UNL1       -0.2434
     15 C         139.2875  139.2245  162.7670 C.ar    1  UNL1        0.1460
     16 C         138.3857  140.3293  162.3022 C.2     1  UNL1        0.2646
     17 O         137.8211  141.3036  163.2931 O.2     1  UNL1       -0.2685
     18 N         138.0485  140.4597  160.8464 N.am    1  UNL1       -0.2976
     19 C         138.6131  139.4854  159.8555 C.3     1  UNL1        0.1161
     20 C         139.5150  138.3806  160.3204 C.3     1  UNL1        0.1488
     21 H         137.4566  141.1848  160.5413 H       1  UNL1        0.1499
     22 C         142.0076  142.1886  167.2130 C.2     1  UNL1        0.1731
     23 O         143.4573  142.0489  167.5718 O.2     1  UNL1       -0.2913
     24 C         140.8240  144.2446  163.3890 C.ar    1  UNL1        0.0194
     25 C         142.2349  143.7731  163.5815 C.ar    1  UNL1        0.0016
     26 C         142.6295  143.0878  164.8560 C.ar    1  UNL1        0.0029
     27 C         141.6131  142.8739  165.9383 C.ar    1  UNL1        0.0347
     28 C         140.2022  143.3454  165.7459 C.ar    1  UNL1        0.0029
     29 C         139.8076  144.0308  164.4712 C.ar    1  UNL1        0.0016
     30 C         140.5227  145.5755  158.2882 C.3     1  UNL1        0.0515
     31 C         140.2910  145.5417  159.7698 C.ar    1  UNL1        0.0535
     32 C         140.9558  144.6162  160.7453 C.ar    1  UNL1        0.0349
     33 C         140.4295  144.9299  162.1144 C.ar    1  UNL1        0.1018
     34 N         139.4394  146.0493  161.9851 N.ar    1  UNL1       -0.1730
     35 N         139.3538  146.4274  160.5361 N.ar    1  UNL1       -0.2798
     36 H         138.7828  147.1330  160.1549 H       1  UNL1        0.1886
@<TRIPOS>BOND
     1    30    31    1
     2    31    32   ar
     3    32    33   ar
     4    33    24    1
     5    24    25   ar
     6    25    26   ar
     7    26    27   ar
     8    27    22    1
     9    22    23    2
    10     1    22    1
    11     1     2    1
    12     2     3    1
    13     3     4    1
    14     4     5    1
    15     5     6    1
    16     6     7    1
    17     7     8    2
    18     7     9   am
    19     9    11    1
    20    11    12   ar
    21    12    13   ar
    22    13    14   ar
    23    14    15   ar
    24    15    16    1
    25    16    17    2
    26    16    18   am
    27    18    19    1
    28    19    20    1
    29    27    28   ar
    30    28    29   ar
    31    33    34   ar
    32    34    35   ar
    33    35    31   ar
    34    29    24   ar
    35     6     1    1
    36    15    11   ar
    37    20    14    1
    38     9    10    1
    39    18    21    1
    40    35    36    1
@<TRIPOS>MOLECULE
*****
 36 40 0 0 0
SMALL
GASTEIGER

@<TRIPOS>ATOM
      1 C         142.2459  141.5237  167.8478 C.3     1  UNL1        0.0705
      2 C         142.9885  141.6170  169.1477 C.3     1  UNL1        0.0082
      3 C         142.5141  142.5562  170.2167 C.3     1  UNL1        0.0005
      4 C         141.2971  143.4021  169.9860 C.3     1  UNL1        0.0005
      5 C         140.5545  143.3088  168.6860 C.3     1  UNL1        0.0095
      6 C         141.0289  142.3696  167.6170 C.3     1  UNL1        0.0840
      7 C         140.2862  142.2763  166.3171 C.2     1  UNL1        0.2261
      8 O         140.5122  143.3046  165.2487 O.2     1  UNL1       -0.2748
      9 N         139.3175  141.1546  166.0855 N.am    1  UNL1       -0.2814
     10 H         139.1692  140.4796  166.7867 H       1  UNL1        0.1549
     11 C         138.5749  141.0613  164.7856 C.ar    1  UNL1        0.0935
     12 C         137.7525  142.1486  164.1600 C.ar    1  UNL1        0.1364
     13 N         137.1936  141.6235  162.8709 N.ar    1  UNL1       -0.1662
     14 N         137.6706  140.2117  162.6997 N.ar    1  UNL1       -0.2434
     15 C         138.5243  139.8642  163.8831 C.ar    1  UNL1        0.1460
     16 C         139.1453  138.5027  163.9859 C.2     1  UNL1        0.2646
     17 O         139.9990  138.1552  165.1693 O.2     1  UNL1       -0.2685
     18 N         138.9126  137.4887  162.9054 N.am    1  UNL1       -0.2976
     19 C         138.0589  137.8362  161.7220 C.3     1  UNL1        0.1161
     20 C         137.4379  139.1977  161.6191 C.3     1  UNL1        0.1488
     21 H         139.3202  136.5951  162.9729 H       1  UNL1        0.1499
     22 C         142.7203  140.5845  166.7787 C.2     1  UNL1        0.1731
     23 O         143.0140  139.1525  167.1148 O.2     1  UNL1       -0.2913
     24 C         143.2623  142.0633  162.5633 C.ar    1  UNL1        0.0194
     25 C         142.4395  140.8374  162.8281 C.ar    1  UNL1        0.0016
     26 C         142.2588  140.3444  164.2332 C.ar    1  UNL1        0.0029
     27 C         142.9009  141.0774  165.3736 C.ar    1  UNL1        0.0347
     28 C         143.7237  142.3033  165.1088 C.ar    1  UNL1        0.0029
     29 C         143.9044  142.7963  163.7036 C.ar    1  UNL1        0.0016
     30 C         144.8462  142.4478  157.5410 C.3     1  UNL1        0.0515
     31 C         144.1710  142.7329  158.8496 C.ar    1  UNL1        0.0535
     32 C         144.2774  141.9045  160.0956 C.ar    1  UNL1        0.0349
     33 C         143.4429  142.5562  161.1582 C.ar    1  UNL1        0.1018
     34 N         142.8207  143.7873  160.5689 N.ar    1  UNL1       -0.1730
     35 N         143.2707  143.8965  159.1421 N.ar    1  UNL1       -0.2798
     36 H         143.0193  144.6071  158.5088 H       1  UNL1        0.1886
@<TRIPOS>BOND
     1    30    31    1
     2    31    32   ar
     3    32    33   ar
     4    33    24    1
     5    24    25   ar
     6    25    26   ar
     7    26    27   ar
     8    27    22    1
     9    22    23    2
    10     1    22    1
    11     1     2    1
    12     2     3    1
    13     3     4    1
    14     4     5    1
    15     5     6    1
    16     6     7    1
    17     7     8    2
    18     7     9   am
    19     9    11    1
    20    11    12   ar
    21    12    13   ar
    22    13    14   ar
    23    14    15   ar
    24    15    16    1
    25    16    17    2
    26    16    18   am
    27    18    19    1
    28    19    20    1
    29    27    28   ar
    30    28    29   ar
    31    33    34   ar
    32    34    35   ar
    33    35    31   ar
    34    29    24   ar
    35     6     1    1
    36    15    11   ar
    37    20    14    1
    38     9    10    1
    39    18    21    1
    40    35    36    1
@<TRIPOS>MOLECULE
*****
 36 40 0 0 0
SMALL
GASTEIGER

@<TRIPOS>ATOM
      1 C         142.1843  141.5447  168.1518 C.3     1  UNL1        0.0705
      2 C         142.9839  141.9234  169.3631 C.3     1  UNL1        0.0082
      3 C         142.4666  142.9683  170.3067 C.3     1  UNL1        0.0005
      4 C         141.1496  143.6346  170.0391 C.3     1  UNL1        0.0005
      5 C         140.3500  143.2559  168.8279 C.3     1  UNL1        0.0095
      6 C         140.8673  142.2110  167.8842 C.3     1  UNL1        0.0840
      7 C         140.0677  141.8323  166.6730 C.2     1  UNL1        0.2261
      8 O         139.4663  140.4620  166.5696 O.2     1  UNL1       -0.2748
      9 N         139.8694  142.8239  165.5650 N.am    1  UNL1       -0.2814
     10 H         140.2642  143.7233  165.6328 H       1  UNL1        0.1549
     11 C         139.0698  142.4452  164.3537 C.ar    1  UNL1        0.0935
     12 C         137.8433  141.5818  164.3415 C.ar    1  UNL1        0.1364
     13 N         137.3718  141.4665  162.9223 N.ar    1  UNL1       -0.1662
     14 N         138.3069  142.2586  162.0573 N.ar    1  UNL1       -0.2434
     15 C         139.3563  142.8635  162.9420 C.ar    1  UNL1        0.1460
     16 C         140.4372  143.7171  162.3479 C.2     1  UNL1        0.2646
     17 O         141.4866  144.3220  163.2326 O.2     1  UNL1       -0.2685
     18 N         140.4686  143.9657  160.8690 N.am    1  UNL1       -0.2976
     19 C         139.4192  143.3608  159.9842 C.3     1  UNL1        0.1161
     20 C         138.3383  142.5072  160.5784 C.3     1  UNL1        0.1488
     21 H         141.1781  144.5259  160.4790 H       1  UNL1        0.1499
     22 C         142.7016  140.4997  167.2082 C.2     1  UNL1        0.1731
     23 O         142.9755  139.1108  167.7041 O.2     1  UNL1       -0.2913
     24 C         143.4319  141.5315  162.8893 C.ar    1  UNL1        0.0194
     25 C         143.9756  142.4139  163.9736 C.ar    1  UNL1        0.0016
     26 C         143.7322  142.0701  165.4132 C.ar    1  UNL1        0.0029
     27 C         142.9450  140.8437  165.7686 C.ar    1  UNL1        0.0347
     28 C         142.4013  139.9612  164.6844 C.ar    1  UNL1        0.0029
     29 C         142.6447  140.3051  163.2447 C.ar    1  UNL1        0.0016
     30 C         144.3939  141.0971  157.7157 C.3     1  UNL1        0.0515
     31 C         144.1175  141.6758  159.0717 C.ar    1  UNL1        0.0535
     32 C         143.9277  140.8981  160.3402 C.ar    1  UNL1        0.0349
     33 C         143.6753  141.8754  161.4497 C.ar    1  UNL1        0.1018
     34 N         143.7090  143.2572  160.8670 N.ar    1  UNL1       -0.1730
     35 N         143.9823  143.1338  159.3972 N.ar    1  UNL1       -0.2798
     36 H         144.0594  143.8789  158.7584 H       1  UNL1        0.1886
@<TRIPOS>BOND
     1    30    31    1
     2    31    32   ar
     3    32    33   ar
     4    33    24    1
     5    24    25   ar
     6    25    26   ar
     7    26    27   ar
     8    27    22    1
     9    22    23    2
    10     1    22    1
    11     1     2    1
    12     2     3    1
    13     3     4    1
    14     4     5    1
    15     5     6    1
    16     6     7    1
    17     7     8    2
    18     7     9   am
    19     9    11    1
    20    11    12   ar
    21    12    13   ar
    22    13    14   ar
    23    14    15   ar
    24    15    16    1
    25    16    17    2
    26    16    18   am
    27    18    19    1
    28    19    20    1
    29    27    28   ar
    30    28    29   ar
    31    33    34   ar
    32    34    35   ar
    33    35    31   ar
    34    29    24   ar
    35     6     1    1
    36    15    11   ar
    37    20    14    1
    38     9    10    1
    39    18    21    1
    40    35    36    1
@<TRIPOS>MOLECULE
*****
 36 40 0 0 0
SMALL
GASTEIGER

@<TRIPOS>ATOM
      1 C         142.0518  141.1053  168.1533 C.3     1  UNL1        0.0705
      2 C         142.6946  140.6451  169.4281 C.3     1  UNL1        0.0082
      3 C         141.8511  140.0787  170.5316 C.3     1  UNL1        0.0005
      4 C         140.3647  139.9724  170.3603 C.3     1  UNL1        0.0005
      5 C         139.7219  140.4325  169.0855 C.3     1  UNL1        0.0095
      6 C         140.5654  140.9989  167.9821 C.3     1  UNL1        0.0840
      7 C         139.9226  141.4591  166.7073 C.2     1  UNL1        0.2261
      8 O         139.9545  142.9112  166.3328 O.2     1  UNL1       -0.2748
      9 N         139.2478  140.4670  165.8069 N.am    1  UNL1       -0.2814
     10 H         139.2268  139.5139  166.0527 H       1  UNL1        0.1549
     11 C         138.6049  140.9271  164.5322 C.ar    1  UNL1        0.0935
     12 C         137.8242  142.1943  164.3458 C.ar    1  UNL1        0.1364
     13 N         137.3668  142.2511  162.9184 N.ar    1  UNL1       -0.1662
     14 N         137.8647  141.0191  162.2226 N.ar    1  UNL1       -0.2434
     15 C         138.6300  140.2008  163.2200 C.ar    1  UNL1        0.1460
     16 C         139.2507  138.9000  162.8045 C.2     1  UNL1        0.2646
     17 O         140.0160  138.0817  163.8019 O.2     1  UNL1       -0.2685
     18 N         139.1062  138.4176  161.3916 N.am    1  UNL1       -0.2976
     19 C         138.3410  139.2359  160.3942 C.3     1  UNL1        0.1161
     20 C         137.7203  140.5366  160.8097 C.3     1  UNL1        0.1488
     21 H         139.5137  137.5639  161.1188 H       1  UNL1        0.1499
     22 C         142.8953  141.6717  167.0499 C.2     1  UNL1        0.1731
     23 O         143.7092  142.9090  167.2877 O.2     1  UNL1       -0.2913
     24 C         142.9842  139.6588  163.0261 C.ar    1  UNL1        0.0194
     25 C         142.6656  141.1211  163.1263 C.ar    1  UNL1        0.0016
     26 C         142.6360  141.7921  164.4675 C.ar    1  UNL1        0.0029
     27 C         142.9249  141.0007  165.7086 C.ar    1  UNL1        0.0347
     28 C         143.2435  139.5384  165.6084 C.ar    1  UNL1        0.0029
     29 C         143.2732  138.8673  164.2672 C.ar    1  UNL1        0.0016
     30 C         142.2876  138.6793  157.8845 C.3     1  UNL1        0.0515
     31 C         142.6936  138.5376  159.3215 C.ar    1  UNL1        0.0535
     32 C         142.4394  139.5356  160.4121 C.ar    1  UNL1        0.0349
     33 C         143.0138  138.9878  161.6849 C.ar    1  UNL1        0.1018
     34 N         143.6231  137.6513  161.3809 N.ar    1  UNL1       -0.1730
     35 N         143.4252  137.3730  159.9203 N.ar    1  UNL1       -0.2798
     36 H         143.7232  136.5675  159.4391 H       1  UNL1        0.1886
@<TRIPOS>BOND
     1    30    31    1
     2    31    32   ar
     3    32    33   ar
     4    33    24    1
     5    24    25   ar
     6    25    26   ar
     7    26    27   ar
     8    27    22    1
     9    22    23    2
    10     1    22    1
    11     1     2    1
    12     2     3    1
    13     3     4    1
    14     4     5    1
    15     5     6    1
    16     6     7    1
    17     7     8    2
    18     7     9   am
    19     9    11    1
    20    11    12   ar
    21    12    13   ar
    22    13    14   ar
    23    14    15   ar
    24    15    16    1
    25    16    17    2
    26    16    18   am
    27    18    19    1
    28    19    20    1
    29    27    28   ar
    30    28    29   ar
    31    33    34   ar
    32    34    35   ar
    33    35    31   ar
    34    29    24   ar
    35     6     1    1
    36    15    11   ar
    37    20    14    1
    38     9    10    1
    39    18    21    1
    40    35    36    1
@<TRIPOS>MOLECULE
*****
 36 40 0 0 0
SMALL
GASTEIGER

@<TRIPOS>ATOM
      1 C         139.1832  137.9963  165.1181 C.3     1  UNL1        0.0705
      2 C         138.3075  136.9101  165.6687 C.3     1  UNL1        0.0082
      3 C         137.4607  137.1706  166.8791 C.3     1  UNL1        0.0005
      4 C         137.4896  138.5174  167.5389 C.3     1  UNL1        0.0005
      5 C         138.3654  139.6036  166.9883 C.3     1  UNL1        0.0095
      6 C         139.2121  139.3430  165.7779 C.3     1  UNL1        0.0840
      7 C         140.0879  140.4293  165.2272 C.2     1  UNL1        0.2261
      8 O         141.5766  140.2486  165.1954 O.2     1  UNL1       -0.2748
      9 N         139.4748  141.6963  164.7084 N.am    1  UNL1       -0.2814
     10 H         138.4977  141.8148  164.7293 H       1  UNL1        0.1549
     11 C         140.3506  142.7825  164.1578 C.ar    1  UNL1        0.0935
     12 C         141.5497  143.3766  164.8352 C.ar    1  UNL1        0.1364
     13 N         142.1211  144.4266  163.9291 N.ar    1  UNL1       -0.1662
     14 N         141.2751  144.4814  162.6917 N.ar    1  UNL1       -0.2434
     15 C         140.1808  143.4653  162.8330 C.ar    1  UNL1        0.1460
     16 C         139.1712  143.2930  161.7372 C.2     1  UNL1        0.2646
     17 O         138.0769  142.2768  161.8785 O.2     1  UNL1       -0.2685
     18 N         139.2558  144.1368  160.5000 N.am    1  UNL1       -0.2976
     19 C         140.3501  145.1530  160.3586 C.3     1  UNL1        0.1161
     20 C         141.3598  145.3253  161.4545 C.3     1  UNL1        0.1488
     21 H         138.5932  144.0238  159.7807 H       1  UNL1        0.1499
     22 C         140.0300  137.7357  163.9077 C.2     1  UNL1        0.1731
     23 O         141.2546  136.8767  164.0198 O.2     1  UNL1       -0.2913
     24 C         138.8968  139.5312  159.9400 C.ar    1  UNL1        0.0194
     25 C         137.8360  138.9689  160.8392 C.ar    1  UNL1        0.0016
     26 C         138.2137  138.3704  162.1617 C.ar    1  UNL1        0.0029
     27 C         139.6523  138.3342  162.5852 C.ar    1  UNL1        0.0347
     28 C         140.7131  138.8965  161.6860 C.ar    1  UNL1        0.0029
     29 C         140.3354  139.4950  160.3634 C.ar    1  UNL1        0.0016
     30 C         137.2429  142.9336  156.2565 C.3     1  UNL1        0.0515
     31 C         137.7588  141.6936  156.9243 C.ar    1  UNL1        0.0535
     32 C         138.0075  141.5218  158.3936 C.ar    1  UNL1        0.0349
     33 C         138.5191  140.1297  158.6175 C.ar    1  UNL1        0.1018
     34 N         138.5866  139.4410  157.2866 N.ar    1  UNL1       -0.1730
     35 N         138.1167  140.4076  156.2402 N.ar    1  UNL1       -0.2798
     36 H         138.0542  140.2292  155.2740 H       1  UNL1        0.1886
@<TRIPOS>BOND
     1    30    31    1
     2    31    32   ar
     3    32    33   ar
     4    33    24    1
     5    24    25   ar
     6    25    26   ar
     7    26    27   ar
     8    27    22    1
     9    22    23    2
    10     1    22    1
    11     1     2    1
    12     2     3    1
    13     3     4    1
    14     4     5    1
    15     5     6    1
    16     6     7    1
    17     7     8    2
    18     7     9   am
    19     9    11    1
    20    11    12   ar
    21    12    13   ar
    22    13    14   ar
    23    14    15   ar
    24    15    16    1
    25    16    17    2
    26    16    18   am
    27    18    19    1
    28    19    20    1
    29    27    28   ar
    30    28    29   ar
    31    33    34   ar
    32    34    35   ar
    33    35    31   ar
    34    29    24   ar
    35     6     1    1
    36    15    11   ar
    37    20    14    1
    38     9    10    1
    39    18    21    1
    40    35    36    1
@<TRIPOS>MOLECULE
*****
 36 40 0 0 0
SMALL
GASTEIGER

@<TRIPOS>ATOM
      1 C         139.3897  138.0109  165.4286 C.3     1  UNL1        0.0705
      2 C         138.1503  137.2847  165.8607 C.3     1  UNL1        0.0082
      3 C         137.3769  137.7648  167.0529 C.3     1  UNL1        0.0005
      4 C         137.8428  138.9710  167.8131 C.3     1  UNL1        0.0005
      5 C         139.0822  139.6972  167.3810 C.3     1  UNL1        0.0095
      6 C         139.8556  139.2171  166.1888 C.3     1  UNL1        0.0840
      7 C         141.0949  139.9432  165.7568 C.2     1  UNL1        0.2261
      8 O         142.4125  139.2268  165.7284 O.2     1  UNL1       -0.2748
      9 N         141.0167  141.3858  165.3530 N.am    1  UNL1       -0.2814
     10 H         140.1520  141.8560  165.3717 H       1  UNL1        0.1549
     11 C         142.2561  142.1120  164.9210 C.ar    1  UNL1        0.0935
     12 C         143.3224  142.6524  165.8270 C.ar    1  UNL1        0.1364
     13 N         144.3721  143.2996  164.9730 N.ar    1  UNL1       -0.1662
     14 N         143.9545  143.1591  163.5391 N.ar    1  UNL1       -0.2434
     15 C         142.6467  142.4251  163.5070 C.ar    1  UNL1        0.1460
     16 C         141.9806  142.1368  162.1944 C.2     1  UNL1        0.2646
     17 O         140.6729  141.4028  162.1622 O.2     1  UNL1       -0.2685
     18 N         142.6222  142.5824  160.9139 N.am    1  UNL1       -0.2976
     19 C         143.9300  143.3164  160.9460 C.3     1  UNL1        0.1161
     20 C         144.5961  143.6048  162.2586 C.3     1  UNL1        0.1488
     21 H         142.1850  142.3931  160.0523 H       1  UNL1        0.1499
     22 C         140.1631  137.5308  164.2364 C.2     1  UNL1        0.1731
     23 O         141.2899  136.5571  164.4159 O.2     1  UNL1       -0.2913
     24 C         139.1026  139.0115  160.1215 C.ar    1  UNL1        0.0194
     25 C         140.4807  138.4878  160.3981 C.ar    1  UNL1        0.0016
     26 C         140.8342  137.9942  161.7696 C.ar    1  UNL1        0.0029
     27 C         139.8096  138.0243  162.8648 C.ar    1  UNL1        0.0347
     28 C         138.4315  138.5481  162.5882 C.ar    1  UNL1        0.0029
     29 C         138.0779  139.0417  161.2165 C.ar    1  UNL1        0.0016
     30 C         139.3079  140.0368  154.9458 C.3     1  UNL1        0.0515
     31 C         138.8435  139.9764  156.3708 C.ar    1  UNL1        0.0535
     32 C         139.5742  139.3288  157.5096 C.ar    1  UNL1        0.0349
     33 C         138.7492  139.5051  158.7498 C.ar    1  UNL1        0.1018
     34 N         137.5086  140.2617  158.3776 N.ar    1  UNL1       -0.1730
     35 N         137.5669  140.5530  156.9073 N.ar    1  UNL1       -0.2798
     36 H         136.8867  141.0375  156.3859 H       1  UNL1        0.1886
@<TRIPOS>BOND
     1    30    31    1
     2    31    32   ar
     3    32    33   ar
     4    33    24    1
     5    24    25   ar
     6    25    26   ar
     7    26    27   ar
     8    27    22    1
     9    22    23    2
    10     1    22    1
    11     1     2    1
    12     2     3    1
    13     3     4    1
    14     4     5    1
    15     5     6    1
    16     6     7    1
    17     7     8    2
    18     7     9   am
    19     9    11    1
    20    11    12   ar
    21    12    13   ar
    22    13    14   ar
    23    14    15   ar
    24    15    16    1
    25    16    17    2
    26    16    18   am
    27    18    19    1
    28    19    20    1
    29    27    28   ar
    30    28    29   ar
    31    33    34   ar
    32    34    35   ar
    33    35    31   ar
    34    29    24   ar
    35     6     1    1
    36    15    11   ar
    37    20    14    1
    38     9    10    1
    39    18    21    1
    40    35    36    1
@<TRIPOS>MOLECULE
*****
 36 40 0 0 0
SMALL
GASTEIGER

@<TRIPOS>ATOM
      1 C         139.0992  138.0982  164.8156 C.3     1  UNL1        0.0705
      2 C         138.3995  136.9342  165.4523 C.3     1  UNL1        0.0082
      3 C         137.5840  137.1376  166.6947 C.3     1  UNL1        0.0005
      4 C         137.4681  138.5049  167.3004 C.3     1  UNL1        0.0005
      5 C         138.1678  139.6689  166.6636 C.3     1  UNL1        0.0095
      6 C         138.9833  139.4656  165.4212 C.3     1  UNL1        0.0840
      7 C         139.6830  140.6296  164.7844 C.2     1  UNL1        0.2261
      8 O         138.9723  141.4623  163.7590 O.2     1  UNL1       -0.2748
      9 N         141.0934  140.9609  165.1731 N.am    1  UNL1       -0.2814
     10 H         141.5599  140.4144  165.8461 H       1  UNL1        0.1549
     11 C         141.7931  142.1249  164.5363 C.ar    1  UNL1        0.0935
     12 C         141.4873  143.5743  164.7727 C.ar    1  UNL1        0.1364
     13 N         142.4267  144.3890  163.9338 N.ar    1  UNL1       -0.1662
     14 N         143.3130  143.4432  163.1789 N.ar    1  UNL1       -0.2434
     15 C         142.9215  142.0439  163.5513 C.ar    1  UNL1        0.1460
     16 C         143.6429  140.8768  162.9453 C.2     1  UNL1        0.2646
     17 O         143.2514  139.4775  163.3176 O.2     1  UNL1       -0.2685
     18 N         144.7560  141.1090  161.9669 N.am    1  UNL1       -0.2976
     19 C         145.1475  142.5083  161.5946 C.3     1  UNL1        0.1161
     20 C         144.4261  143.6754  162.2006 C.3     1  UNL1        0.1488
     21 H         145.2295  140.3430  161.5692 H       1  UNL1        0.1499
     22 C         139.9147  137.8948  163.5732 C.2     1  UNL1        0.1731
     23 O         141.1475  137.0414  163.6166 O.2     1  UNL1       -0.2913
     24 C         138.6629  139.8450  159.7157 C.ar    1  UNL1        0.0194
     25 C         137.6239  139.3672  160.6862 C.ar    1  UNL1        0.0016
     26 C         138.0410  138.7172  161.9720 C.ar    1  UNL1        0.0029
     27 C         139.4974  138.5449  162.2874 C.ar    1  UNL1        0.0347
     28 C         140.5365  139.0227  161.3168 C.ar    1  UNL1        0.0029
     29 C         140.1193  139.6728  160.0309 C.ar    1  UNL1        0.0016
     30 C         137.2483  143.4750  156.1516 C.3     1  UNL1        0.0515
     31 C         137.5954  142.1636  156.7916 C.ar    1  UNL1        0.0535
     32 C         137.9873  141.9584  158.2249 C.ar    1  UNL1        0.0349
     33 C         138.2456  140.4951  158.4299 C.ar    1  UNL1        0.1018
     34 N         138.0134  139.7959  157.1233 N.ar    1  UNL1       -0.1730
     35 N         137.6116  140.8271  156.1107 N.ar    1  UNL1       -0.2798
     36 H         137.3962  140.6567  155.1653 H       1  UNL1        0.1886
@<TRIPOS>BOND
     1    30    31    1
     2    31    32   ar
     3    32    33   ar
     4    33    24    1
     5    24    25   ar
     6    25    26   ar
     7    26    27   ar
     8    27    22    1
     9    22    23    2
    10     1    22    1
    11     1     2    1
    12     2     3    1
    13     3     4    1
    14     4     5    1
    15     5     6    1
    16     6     7    1
    17     7     8    2
    18     7     9   am
    19     9    11    1
    20    11    12   ar
    21    12    13   ar
    22    13    14   ar
    23    14    15   ar
    24    15    16    1
    25    16    17    2
    26    16    18   am
    27    18    19    1
    28    19    20    1
    29    27    28   ar
    30    28    29   ar
    31    33    34   ar
    32    34    35   ar
    33    35    31   ar
    34    29    24   ar
    35     6     1    1
    36    15    11   ar
    37    20    14    1
    38     9    10    1
    39    18    21    1
    40    35    36    1
