@<TRIPOS>MOLECULE
*****
 32 36 0 0 0
SMALL
GASTEIGER

@<TRIPOS>ATOM
      1 C         142.8635  136.8825  157.5787 C.ar    1  UNL1        0.1646
      2 N         143.2477  136.7872  159.0255 N.ar    1  UNL1       -0.2224
      3 C         142.4384  137.7946  159.7873 C.ar    1  UNL1        0.1074
      4 C         141.5541  138.5123  158.8112 C.ar    1  UNL1        0.0588
      5 S         141.8168  137.9487  157.4462 S.2     1  UNL1       -0.0508
      6 C         142.5022  138.0408  161.2655 C.ar    1  UNL1        0.1026
      7 C         143.6466  138.8159  161.8481 C.ar    1  UNL1        0.0224
      8 C         143.7104  139.0622  163.3263 C.ar    1  UNL1        0.0239
      9 C         142.6297  138.5333  164.2221 C.ar    1  UNL1        0.1189
     10 C         141.4853  137.7581  163.6395 C.ar    1  UNL1        0.2416
     11 N         141.4214  137.5119  162.1613 N.ar    1  UNL1       -0.2089
     12 N         142.6935  138.7795  165.7003 N.ar    1  UNL1       -0.2826
     13 C         143.6030  138.0865  166.6712 C.ar    1  UNL1        0.1826
     14 N         143.3307  138.6407  168.0381 N.ar    1  UNL1       -0.2280
     15 C         142.2528  139.6762  167.9122 C.ar    1  UNL1        0.0786
     16 C         141.6709  140.4842  169.0341 C.3     1  UNL1        0.0538
     17 C         141.8590  139.7620  166.4673 C.ar    1  UNL1        0.0963
     18 O         140.4046  137.2293  164.5353 O.3     1  UNL1       -0.4551
     19 C         139.1456  138.0189  164.7385 C.3     1  UNL1        0.2543
     20 N         143.4272  136.0565  156.4605 N.pl3   1  UNL1       -0.2786
     21 H         144.1553  136.4144  155.9028 H       1  UNL1        0.1555
     22 N         141.6876  134.3622  155.3433 N.ar    1  UNL1       -0.2383
     23 N         141.5020  132.8738  155.3520 N.ar    1  UNL1       -0.1729
     24 C         142.5811  132.2770  156.2060 C.ar    1  UNL1        0.0773
     25 C         143.4336  133.3967  156.7252 C.ar    1  UNL1        0.0244
     26 C         142.8814  134.6854  156.1920 C.ar    1  UNL1        0.1275
     27 C         144.6026  133.0981  157.6165 C.3     1  UNL1        0.0305
     28 C         144.9190  131.6799  157.9885 C.3     1  UNL1        0.0052
     29 C         144.0665  130.5602  157.4693 C.3     1  UNL1        0.0067
     30 C         142.8975  130.8588  156.5780 C.3     1  UNL1        0.0474
     31 C         141.3245  135.9831  153.3455 C.3     1  UNL1        0.0285
     32 C         140.8299  135.3534  154.6140 C.3     1  UNL1        0.1289
@<TRIPOS>BOND
     1    31    32    1
     2    32    22    1
     3    22    23   ar
     4    23    24   ar
     5    24    25   ar
     6    25    26   ar
     7    26    20    1
     8    20     1    1
     9     1     2   ar
    10     2     3   ar
    11     3     6    1
    12     6     7   ar
    13     7     8   ar
    14     8     9   ar
    15     9    12    1
    16    12    13   ar
    17    13    14   ar
    18    14    15   ar
    19    15    16    1
    20    15    17   ar
    21     9    10   ar
    22    10    18    1
    23    18    19    1
    24    10    11   ar
    25     3     4   ar
    26     4     5   ar
    27    25    27    1
    28    27    28    1
    29    28    29    1
    30    29    30    1
    31    26    22   ar
    32     5     1   ar
    33    30    24    1
    34    11     6   ar
    35    17    12   ar
    36    20    21    1
@<TRIPOS>MOLECULE
*****
 32 36 0 0 0
SMALL
GASTEIGER

@<TRIPOS>ATOM
      1 C         142.8822  136.9193  157.5356 C.ar    1  UNL1        0.1646
      2 N         143.2353  136.7967  158.9883 N.ar    1  UNL1       -0.2224
      3 C         142.4788  137.8517  159.7398 C.ar    1  UNL1        0.1074
      4 C         141.6581  138.6262  158.7516 C.ar    1  UNL1        0.0588
      5 S         141.9074  138.0500  157.3894 S.2     1  UNL1       -0.0508
      6 C         142.5334  138.0902  161.2197 C.ar    1  UNL1        0.1026
      7 C         141.3569  137.7363  162.0804 C.ar    1  UNL1        0.0224
      8 C         141.4115  137.9748  163.5603 C.ar    1  UNL1        0.0239
      9 C         142.6426  138.5672  164.1795 C.ar    1  UNL1        0.1189
     10 C         143.8191  138.9211  163.3189 C.ar    1  UNL1        0.2416
     11 N         143.7645  138.6826  161.8390 N.ar    1  UNL1       -0.2089
     12 N         142.6972  138.8057  165.6594 N.ar    1  UNL1       -0.2826
     13 C         143.6258  138.1339  166.6271 C.ar    1  UNL1        0.1826
     14 N         143.3352  138.6709  167.9972 N.ar    1  UNL1       -0.2280
     15 C         142.2271  139.6745  167.8764 C.ar    1  UNL1        0.0786
     16 C         141.6199  140.4575  169.0027 C.3     1  UNL1        0.0538
     17 C         141.8328  139.7579  166.4315 C.ar    1  UNL1        0.0963
     18 O         145.0501  139.5135  163.9382 O.3     1  UNL1       -0.4551
     19 C         145.1703  141.0006  164.0933 C.3     1  UNL1        0.2543
     20 N         143.4110  136.0618  156.4242 N.pl3   1  UNL1       -0.2786
     21 H         144.1282  136.3995  155.8405 H       1  UNL1        0.1555
     22 N         141.6124  134.3603  155.4167 N.ar    1  UNL1       -0.2383
     23 N         141.4211  132.8731  155.4560 N.ar    1  UNL1       -0.1729
     24 C         142.5373  132.2833  156.2660 C.ar    1  UNL1        0.0773
     25 C         143.4187  133.4060  156.7273 C.ar    1  UNL1        0.0244
     26 C         142.8470  134.6896  156.2024 C.ar    1  UNL1        0.1275
     27 C         144.6278  133.1144  157.5657 C.3     1  UNL1        0.0305
     28 C         144.9556  131.7001  157.9428 C.3     1  UNL1        0.0052
     29 C         144.0743  130.5774  157.4815 C.3     1  UNL1        0.0067
     30 C         142.8652  130.8690  156.6431 C.3     1  UNL1        0.0474
     31 C         141.2270  136.0788  153.5067 C.3     1  UNL1        0.0285
     32 C         140.7251  135.3452  154.7149 C.3     1  UNL1        0.1289
@<TRIPOS>BOND
     1    31    32    1
     2    32    22    1
     3    22    23   ar
     4    23    24   ar
     5    24    25   ar
     6    25    26   ar
     7    26    20    1
     8    20     1    1
     9     1     2   ar
    10     2     3   ar
    11     3     6    1
    12     6     7   ar
    13     7     8   ar
    14     8     9   ar
    15     9    12    1
    16    12    13   ar
    17    13    14   ar
    18    14    15   ar
    19    15    16    1
    20    15    17   ar
    21     9    10   ar
    22    10    18    1
    23    18    19    1
    24    10    11   ar
    25     3     4   ar
    26     4     5   ar
    27    25    27    1
    28    27    28    1
    29    28    29    1
    30    29    30    1
    31    26    22   ar
    32     5     1   ar
    33    30    24    1
    34    11     6   ar
    35    17    12   ar
    36    20    21    1
@<TRIPOS>MOLECULE
*****
 32 36 0 0 0
SMALL
GASTEIGER

@<TRIPOS>ATOM
      1 C         142.6032  137.6859  157.9459 C.ar    1  UNL1        0.1646
      2 N         142.3003  137.4056  159.3880 N.ar    1  UNL1       -0.2224
      3 C         141.5232  138.5673  159.9327 C.ar    1  UNL1        0.1074
      4 C         141.3460  139.5655  158.8272 C.ar    1  UNL1        0.0588
      5 S         142.0134  139.0208  157.5993 S.2     1  UNL1       -0.0508
      6 C         141.0131  138.7064  161.3364 C.ar    1  UNL1        0.1026
      7 C         141.3391  137.6596  162.3600 C.ar    1  UNL1        0.0224
      8 C         140.8289  137.7986  163.7637 C.ar    1  UNL1        0.0239
      9 C         139.9927  138.9846  164.1438 C.ar    1  UNL1        0.1189
     10 C         139.6668  140.0314  163.1201 C.ar    1  UNL1        0.2416
     11 N         140.1769  139.8923  161.7164 N.ar    1  UNL1       -0.2089
     12 N         139.4826  139.1236  165.5475 N.ar    1  UNL1       -0.2826
     13 C         138.2303  138.5062  166.0957 C.ar    1  UNL1        0.1826
     14 N         138.1089  138.9054  167.5364 N.ar    1  UNL1       -0.2280
     15 C         139.2862  139.7697  167.8787 C.ar    1  UNL1        0.0786
     16 C         139.5654  140.3901  169.2156 C.3     1  UNL1        0.0538
     17 C         140.1351  139.9045  166.6494 C.ar    1  UNL1        0.0963
     18 O         138.8306  141.2173  163.5002 O.3     1  UNL1       -0.4551
     19 C         137.3679  141.2408  163.1687 C.3     1  UNL1        0.2543
     20 N         143.3627  136.7887  157.0139 N.pl3   1  UNL1       -0.2786
     21 H         144.2770  137.0270  156.7372 H       1  UNL1        0.1555
     22 N         141.5349  135.4457  155.5995 N.ar    1  UNL1       -0.2383
     23 N         141.2462  133.9959  155.3448 N.ar    1  UNL1       -0.1729
     24 C         142.2619  133.1829  156.0913 C.ar    1  UNL1        0.0773
     25 C         143.1784  134.1301  156.8074 C.ar    1  UNL1        0.0244
     26 C         142.7290  135.5286  156.5035 C.ar    1  UNL1        0.1275
     27 C         144.3036  133.5968  157.6437 C.3     1  UNL1        0.0305
     28 C         144.5124  132.1163  157.7639 C.3     1  UNL1        0.0052
     29 C         143.5959  131.1691  157.0478 C.3     1  UNL1        0.0067
     30 C         142.4707  131.7024  156.2115 C.3     1  UNL1        0.0474
     31 C         139.4292  136.9672  155.6283 C.3     1  UNL1        0.0285
     32 C         140.7647  136.6084  155.0473 C.3     1  UNL1        0.1289
@<TRIPOS>BOND
     1    31    32    1
     2    32    22    1
     3    22    23   ar
     4    23    24   ar
     5    24    25   ar
     6    25    26   ar
     7    26    20    1
     8    20     1    1
     9     1     2   ar
    10     2     3   ar
    11     3     6    1
    12     6     7   ar
    13     7     8   ar
    14     8     9   ar
    15     9    12    1
    16    12    13   ar
    17    13    14   ar
    18    14    15   ar
    19    15    16    1
    20    15    17   ar
    21     9    10   ar
    22    10    18    1
    23    18    19    1
    24    10    11   ar
    25     3     4   ar
    26     4     5   ar
    27    25    27    1
    28    27    28    1
    29    28    29    1
    30    29    30    1
    31    26    22   ar
    32     5     1   ar
    33    30    24    1
    34    11     6   ar
    35    17    12   ar
    36    20    21    1
@<TRIPOS>MOLECULE
*****
 32 36 0 0 0
SMALL
GASTEIGER

@<TRIPOS>ATOM
      1 C         137.3853  140.8406  157.3586 C.ar    1  UNL1        0.1646
      2 N         137.3243  140.1814  158.7046 N.ar    1  UNL1       -0.2224
      3 C         138.0069  141.0804  159.6924 C.ar    1  UNL1        0.1074
      4 C         138.4898  142.2952  158.9569 C.ar    1  UNL1        0.0588
      5 S         138.1057  142.1470  157.5146 S.2     1  UNL1       -0.0508
      6 C         138.1768  140.8117  161.1584 C.ar    1  UNL1        0.1026
      7 C         138.8068  139.5305  161.6180 C.ar    1  UNL1        0.0224
      8 C         138.9767  139.2618  163.0839 C.ar    1  UNL1        0.0239
      9 C         138.5165  140.2745  164.0903 C.ar    1  UNL1        0.1189
     10 C         137.8864  141.5558  163.6306 C.ar    1  UNL1        0.2416
     11 N         137.7165  141.8245  162.1647 N.ar    1  UNL1       -0.2089
     12 N         138.6864  140.0059  165.5562 N.ar    1  UNL1       -0.2826
     13 C         137.9104  139.0096  166.3657 C.ar    1  UNL1        0.1826
     14 N         138.4065  139.0743  167.7798 N.ar    1  UNL1       -0.2280
     15 C         139.4891  140.1106  167.8442 C.ar    1  UNL1        0.0786
     16 C         140.2629  140.5023  169.0682 C.3     1  UNL1        0.0538
     17 C         139.6621  140.6863  166.4700 C.ar    1  UNL1        0.0963
     18 O         137.4262  142.5684  164.6370 O.3     1  UNL1       -0.4551
     19 C         138.0742  143.9202  164.6910 C.3     1  UNL1        0.2543
     20 N         136.8244  140.2901  156.0809 N.pl3   1  UNL1       -0.2786
     21 H         137.3543  139.6588  155.5424 H       1  UNL1        0.1555
     22 N         135.1459  141.5679  154.4394 N.ar    1  UNL1       -0.2383
     23 N         133.6561  141.7204  154.3544 N.ar    1  UNL1       -0.1729
     24 C         133.0457  140.9480  155.4863 C.ar    1  UNL1        0.0773
     25 C         134.1583  140.3182  156.2708 C.ar    1  UNL1        0.0244
     26 C         135.4563  140.7013  155.6238 C.ar    1  UNL1        0.1275
     27 C         133.8458  139.4773  157.4729 C.3     1  UNL1        0.0305
     28 C         132.4207  139.2662  157.8905 C.3     1  UNL1        0.0052
     29 C         131.3081  139.8960  157.1060 C.3     1  UNL1        0.0067
     30 C         131.6206  140.7369  155.9039 C.3     1  UNL1        0.0474
     31 C         136.7439  143.5177  153.8112 C.3     1  UNL1        0.0285
     32 C         136.1491  142.1753  153.5042 C.3     1  UNL1        0.1289
@<TRIPOS>BOND
     1    31    32    1
     2    32    22    1
     3    22    23   ar
     4    23    24   ar
     5    24    25   ar
     6    25    26   ar
     7    26    20    1
     8    20     1    1
     9     1     2   ar
    10     2     3   ar
    11     3     6    1
    12     6     7   ar
    13     7     8   ar
    14     8     9   ar
    15     9    12    1
    16    12    13   ar
    17    13    14   ar
    18    14    15   ar
    19    15    16    1
    20    15    17   ar
    21     9    10   ar
    22    10    18    1
    23    18    19    1
    24    10    11   ar
    25     3     4   ar
    26     4     5   ar
    27    25    27    1
    28    27    28    1
    29    28    29    1
    30    29    30    1
    31    26    22   ar
    32     5     1   ar
    33    30    24    1
    34    11     6   ar
    35    17    12   ar
    36    20    21    1
@<TRIPOS>MOLECULE
*****
 32 36 0 0 0
SMALL
GASTEIGER

@<TRIPOS>ATOM
      1 C         143.8816  141.0642  164.2518 C.ar    1  UNL1        0.1646
      2 N         142.7928  141.5378  163.3351 N.ar    1  UNL1       -0.2224
      3 C         143.4345  142.2614  162.1885 C.ar    1  UNL1        0.1074
      4 C         144.9197  142.2349  162.3966 C.ar    1  UNL1        0.0588
      5 S         145.1960  141.4950  163.6717 S.2     1  UNL1       -0.0508
      6 C         142.7168  142.8994  161.0361 C.ar    1  UNL1        0.1026
      7 C         143.1390  142.5963  159.6291 C.ar    1  UNL1        0.0224
      8 C         142.4213  143.2343  158.4767 C.ar    1  UNL1        0.0239
      9 C         141.2814  144.1755  158.7315 C.ar    1  UNL1        0.1189
     10 C         140.8593  144.4786  160.1386 C.ar    1  UNL1        0.2416
     11 N         141.5769  143.8406  161.2909 N.ar    1  UNL1       -0.2089
     12 N         140.5638  144.8135  157.5792 N.ar    1  UNL1       -0.2826
     13 C         139.4231  144.2151  156.8106 C.ar    1  UNL1        0.1826
     14 N         139.0151  145.1937  155.7495 N.ar    1  UNL1       -0.2280
     15 C         139.9037  146.3969  155.8623 C.ar    1  UNL1        0.0786
     16 C         139.8454  147.6203  154.9962 C.3     1  UNL1        0.0538
     17 C         140.8608  146.1619  156.9931 C.ar    1  UNL1        0.0963
     18 O         139.7194  145.4198  160.3933 O.3     1  UNL1       -0.4551
     19 C         139.7050  146.2618  161.6346 C.3     1  UNL1        0.2543
     20 N         143.6895  140.2948  165.5251 N.pl3   1  UNL1       -0.2786
     21 H         144.4196  139.7363  165.8777 H       1  UNL1        0.1555
     22 N         142.0769  141.2897  167.4105 N.ar    1  UNL1       -0.2383
     23 N         140.6612  141.0366  167.8369 N.ar    1  UNL1       -0.1729
     24 C         140.0945  139.9669  166.9511 C.ar    1  UNL1        0.0773
     25 C         141.1600  139.5588  165.9773 C.ar    1  UNL1        0.0244
     26 C         142.3851  140.3763  166.2613 C.ar    1  UNL1        0.1275
     27 C         140.8769  138.4955  164.9579 C.3     1  UNL1        0.0305
     28 C         139.5283  137.8404  164.9123 C.3     1  UNL1        0.0052
     29 C         138.4629  138.2485  165.8860 C.3     1  UNL1        0.0067
     30 C         138.7460  139.3117  166.9055 C.3     1  UNL1        0.0474
     31 C         143.4195  142.1436  169.4643 C.3     1  UNL1        0.0285
     32 C         143.0190  142.2818  168.0255 C.3     1  UNL1        0.1289
@<TRIPOS>BOND
     1    31    32    1
     2    32    22    1
     3    22    23   ar
     4    23    24   ar
     5    24    25   ar
     6    25    26   ar
     7    26    20    1
     8    20     1    1
     9     1     2   ar
    10     2     3   ar
    11     3     6    1
    12     6     7   ar
    13     7     8   ar
    14     8     9   ar
    15     9    12    1
    16    12    13   ar
    17    13    14   ar
    18    14    15   ar
    19    15    16    1
    20    15    17   ar
    21     9    10   ar
    22    10    18    1
    23    18    19    1
    24    10    11   ar
    25     3     4   ar
    26     4     5   ar
    27    25    27    1
    28    27    28    1
    29    28    29    1
    30    29    30    1
    31    26    22   ar
    32     5     1   ar
    33    30    24    1
    34    11     6   ar
    35    17    12   ar
    36    20    21    1
@<TRIPOS>MOLECULE
*****
 32 36 0 0 0
SMALL
GASTEIGER

@<TRIPOS>ATOM
      1 C         143.3843  136.6703  156.5359 C.ar    1  UNL1        0.1646
      2 N         142.8946  136.5537  157.9489 N.ar    1  UNL1       -0.2224
      3 C         142.3018  137.8736  158.3444 C.ar    1  UNL1        0.1074
      4 C         142.4251  138.8058  157.1759 C.ar    1  UNL1        0.0588
      5 S         143.0941  138.0622  156.0581 S.2     1  UNL1       -0.0508
      6 C         141.6926  138.2032  159.6749 C.ar    1  UNL1        0.1026
      7 C         142.5395  138.1849  160.9128 C.ar    1  UNL1        0.0224
      8 C         141.9304  138.5145  162.2433 C.ar    1  UNL1        0.0239
      9 C         140.4742  138.8626  162.3359 C.ar    1  UNL1        0.1189
     10 C         139.6273  138.8809  161.0980 C.ar    1  UNL1        0.2416
     11 N         140.2365  138.5513  159.7675 N.ar    1  UNL1       -0.2089
     12 N         139.8651  139.1922  163.6664 N.ar    1  UNL1       -0.2826
     13 C         140.0227  140.4839  164.4125 C.ar    1  UNL1        0.1826
     14 N         139.2464  140.3781  165.6916 N.ar    1  UNL1       -0.2280
     15 C         138.6090  139.0210  165.7360 C.ar    1  UNL1        0.0786
     16 C         137.7415  138.4900  166.8386 C.3     1  UNL1        0.0538
     17 C         138.9913  138.2881  164.4844 C.ar    1  UNL1        0.0963
     18 O         138.1712  139.2290  161.1907 O.3     1  UNL1       -0.4551
     19 C         137.7483  140.6644  161.2939 C.3     1  UNL1        0.2543
     20 N         144.0477  135.5854  155.7402 N.pl3   1  UNL1       -0.2786
     21 H         144.9077  135.7584  155.2933 H       1  UNL1        0.1555
     22 N         142.2502  133.8843  154.7300 N.ar    1  UNL1       -0.2383
     23 N         141.9292  132.4338  154.9372 N.ar    1  UNL1       -0.1729
     24 C         142.8813  131.8899  155.9607 C.ar    1  UNL1        0.0773
     25 C         143.7908  133.0043  156.3861 C.ar    1  UNL1        0.0244
     26 C         143.4007  134.2369  155.6255 C.ar    1  UNL1        0.1275
     27 C         144.8567  132.7527  157.4111 C.3     1  UNL1        0.0305
     28 C         145.0130  131.3867  158.0107 C.3     1  UNL1        0.0052
     29 C         144.1035  130.2723  157.5853 C.3     1  UNL1        0.0067
     30 C         143.0377  130.5239  156.5603 C.3     1  UNL1        0.0474
     31 C         141.7001  134.6515  152.3095 C.3     1  UNL1        0.0285
     32 C         141.5445  134.8183  153.7920 C.3     1  UNL1        0.1289
@<TRIPOS>BOND
     1    31    32    1
     2    32    22    1
     3    22    23   ar
     4    23    24   ar
     5    24    25   ar
     6    25    26   ar
     7    26    20    1
     8    20     1    1
     9     1     2   ar
    10     2     3   ar
    11     3     6    1
    12     6     7   ar
    13     7     8   ar
    14     8     9   ar
    15     9    12    1
    16    12    13   ar
    17    13    14   ar
    18    14    15   ar
    19    15    16    1
    20    15    17   ar
    21     9    10   ar
    22    10    18    1
    23    18    19    1
    24    10    11   ar
    25     3     4   ar
    26     4     5   ar
    27    25    27    1
    28    27    28    1
    29    28    29    1
    30    29    30    1
    31    26    22   ar
    32     5     1   ar
    33    30    24    1
    34    11     6   ar
    35    17    12   ar
    36    20    21    1
@<TRIPOS>MOLECULE
*****
 32 36 0 0 0
SMALL
GASTEIGER

@<TRIPOS>ATOM
      1 C         138.9997  142.2727  164.5837 C.ar    1  UNL1        0.1646
      2 N         139.7545  142.3432  163.2894 N.ar    1  UNL1       -0.2224
      3 C         139.1531  143.4398  162.4612 C.ar    1  UNL1        0.1074
      4 C         138.0267  144.0470  163.2438 C.ar    1  UNL1        0.0588
      5 S         137.9318  143.3257  164.5555 S.2     1  UNL1       -0.0508
      6 C         139.5998  143.8561  161.0912 C.ar    1  UNL1        0.1026
      7 C         140.6264  144.9383  160.9335 C.ar    1  UNL1        0.0224
      8 C         141.0731  145.3546  159.5634 C.ar    1  UNL1        0.0239
      9 C         140.4931  144.6887  158.3509 C.ar    1  UNL1        0.1189
     10 C         139.4665  143.6065  158.5086 C.ar    1  UNL1        0.2416
     11 N         139.0198  143.1902  159.8786 N.ar    1  UNL1       -0.2089
     12 N         140.9398  145.1050  156.9808 N.ar    1  UNL1       -0.2826
     13 C         142.1695  144.6228  156.2699 C.ar    1  UNL1        0.1826
     14 N         142.2249  145.2964  154.9309 N.ar    1  UNL1       -0.2280
     15 C         141.0295  146.1948  154.8141 C.ar    1  UNL1        0.0786
     16 C         140.6882  147.0598  153.6370 C.3     1  UNL1        0.0538
     17 C         140.2352  146.0765  156.0810 C.ar    1  UNL1        0.0963
     18 O         138.8866  142.9405  157.2960 O.3     1  UNL1       -0.4551
     19 C         137.5481  142.2685  157.3775 C.3     1  UNL1        0.2543
     20 N         139.2660  141.3169  165.7088 N.pl3   1  UNL1       -0.2786
     21 H         138.5489  140.7247  166.0317 H       1  UNL1        0.1555
     22 N         141.8073  140.4967  165.8280 N.ar    1  UNL1       -0.2383
     23 N         142.9530  140.7268  166.7684 N.ar    1  UNL1       -0.1729
     24 C         142.4787  141.6358  167.8633 C.ar    1  UNL1        0.0773
     25 C         141.0398  141.9675  167.5996 C.ar    1  UNL1        0.0244
     26 C         140.6248  141.2635  166.3417 C.ar    1  UNL1        0.1275
     27 C         140.2933  142.8676  168.5389 C.3     1  UNL1        0.0305
     28 C         140.9857  143.4361  169.7420 C.3     1  UNL1        0.0052
     29 C         142.4247  143.1045  170.0056 C.3     1  UNL1        0.0067
     30 C         143.1711  142.2043  169.0663 C.3     1  UNL1        0.0474
     31 C         141.8260  138.1533  164.7065 C.3     1  UNL1        0.0285
     32 C         141.8385  139.6487  164.5911 C.3     1  UNL1        0.1289
@<TRIPOS>BOND
     1    31    32    1
     2    32    22    1
     3    22    23   ar
     4    23    24   ar
     5    24    25   ar
     6    25    26   ar
     7    26    20    1
     8    20     1    1
     9     1     2   ar
    10     2     3   ar
    11     3     6    1
    12     6     7   ar
    13     7     8   ar
    14     8     9   ar
    15     9    12    1
    16    12    13   ar
    17    13    14   ar
    18    14    15   ar
    19    15    16    1
    20    15    17   ar
    21     9    10   ar
    22    10    18    1
    23    18    19    1
    24    10    11   ar
    25     3     4   ar
    26     4     5   ar
    27    25    27    1
    28    27    28    1
    29    28    29    1
    30    29    30    1
    31    26    22   ar
    32     5     1   ar
    33    30    24    1
    34    11     6   ar
    35    17    12   ar
    36    20    21    1
@<TRIPOS>MOLECULE
*****
 32 36 0 0 0
SMALL
GASTEIGER

@<TRIPOS>ATOM
      1 C         142.5142  138.0932  158.5022 C.ar    1  UNL1        0.1646
      2 N         143.1063  138.2617  159.8701 N.ar    1  UNL1       -0.2224
      3 C         142.0435  138.8193  160.7698 C.ar    1  UNL1        0.1074
      4 C         140.7945  138.9952  159.9579 C.ar    1  UNL1        0.0588
      5 S         141.0854  138.5465  158.5566 S.2     1  UNL1       -0.0508
      6 C         142.2018  139.1438  162.2256 C.ar    1  UNL1        0.1026
      7 C         143.4854  138.8202  162.9310 C.ar    1  UNL1        0.0224
      8 C         143.6437  139.1447  164.3869 C.ar    1  UNL1        0.0239
      9 C         142.5183  139.7930  165.1374 C.ar    1  UNL1        0.1189
     10 C         141.2347  140.1166  164.4321 C.ar    1  UNL1        0.2416
     11 N         141.0764  139.7921  162.9762 N.ar    1  UNL1       -0.2089
     12 N         142.6766  140.1175  166.5933 N.ar    1  UNL1       -0.2826
     13 C         142.7433  139.1248  167.7157 C.ar    1  UNL1        0.1826
     14 N         142.9039  139.8855  168.9985 N.ar    1  UNL1       -0.2280
     15 C         142.9366  141.3485  168.6688 C.ar    1  UNL1        0.0786
     16 C         143.0838  142.4710  169.6529 C.3     1  UNL1        0.0538
     17 C         142.7961  141.4919  167.1823 C.ar    1  UNL1        0.0963
     18 O         140.1093  140.7649  165.1827 O.3     1  UNL1       -0.4551
     19 C         139.8018  142.2170  164.9663 C.3     1  UNL1        0.2543
     20 N         143.2260  137.5641  157.2924 N.pl3   1  UNL1       -0.2786
     21 H         144.1482  137.8497  157.0997 H       1  UNL1        0.1555
     22 N         141.6349  136.9624  155.2305 N.ar    1  UNL1       -0.2383
     23 N         141.1627  135.6903  154.5911 N.ar    1  UNL1       -0.1729
     24 C         141.7685  134.5416  155.3417 C.ar    1  UNL1        0.0773
     25 C         142.6151  135.1037  156.4450 C.ar    1  UNL1        0.0244
     26 C         142.5326  136.5998  156.3762 C.ar    1  UNL1        0.1275
     27 C         143.3519  134.1805  157.3696 C.3     1  UNL1        0.0305
     28 C         143.2419  132.6953  157.1910 C.3     1  UNL1        0.0052
     29 C         142.3953  132.1332  156.0877 C.3     1  UNL1        0.0067
     30 C         141.6585  133.0563  155.1631 C.3     1  UNL1        0.0474
     31 C         142.0438  139.0221  153.7007 C.3     1  UNL1        0.0285
     32 C         141.2730  138.3529  154.7997 C.3     1  UNL1        0.1289
@<TRIPOS>BOND
     1    31    32    1
     2    32    22    1
     3    22    23   ar
     4    23    24   ar
     5    24    25   ar
     6    25    26   ar
     7    26    20    1
     8    20     1    1
     9     1     2   ar
    10     2     3   ar
    11     3     6    1
    12     6     7   ar
    13     7     8   ar
    14     8     9   ar
    15     9    12    1
    16    12    13   ar
    17    13    14   ar
    18    14    15   ar
    19    15    16    1
    20    15    17   ar
    21     9    10   ar
    22    10    18    1
    23    18    19    1
    24    10    11   ar
    25     3     4   ar
    26     4     5   ar
    27    25    27    1
    28    27    28    1
    29    28    29    1
    30    29    30    1
    31    26    22   ar
    32     5     1   ar
    33    30    24    1
    34    11     6   ar
    35    17    12   ar
    36    20    21    1
@<TRIPOS>MOLECULE
*****
 32 36 0 0 0
SMALL
GASTEIGER

@<TRIPOS>ATOM
      1 C         140.4505  141.5048  164.6173 C.ar    1  UNL1        0.1646
      2 N         140.7988  141.7396  163.1773 N.ar    1  UNL1       -0.2224
      3 C         140.1205  143.0027  162.7364 C.ar    1  UNL1        0.1074
      4 C         139.3529  143.5484  163.9038 C.ar    1  UNL1        0.0588
      5 S         139.5569  142.6227  165.0663 S.2     1  UNL1       -0.0508
      6 C         140.1963  143.6128  161.3682 C.ar    1  UNL1        0.1026
      7 C         140.8931  144.9263  161.1702 C.ar    1  UNL1        0.0224
      8 C         140.9690  145.5364  159.8021 C.ar    1  UNL1        0.0239
      9 C         140.3480  144.8330  158.6317 C.ar    1  UNL1        0.1189
     10 C         139.6512  143.5195  158.8297 C.ar    1  UNL1        0.2416
     11 N         139.5753  142.9094  160.1979 N.ar    1  UNL1       -0.2089
     12 N         140.4239  145.4431  157.2635 N.ar    1  UNL1       -0.2826
     13 C         139.6154  146.6065  156.7709 C.ar    1  UNL1        0.1826
     14 N         140.0134  146.8794  155.3507 N.ar    1  UNL1       -0.2280
     15 C         141.0679  145.8846  154.9655 C.ar    1  UNL1        0.0786
     16 C         141.7491  145.7935  153.6322 C.3     1  UNL1        0.0538
     17 C         141.3216  144.9969  156.1477 C.ar    1  UNL1        0.0963
     18 O         139.0303  142.8162  157.6593 O.3     1  UNL1       -0.4551
     19 C         137.7250  142.0955  157.8237 C.3     1  UNL1        0.2543
     20 N         140.9144  140.3540  165.4604 N.pl3   1  UNL1       -0.2786
     21 H         141.5723  139.7151  165.1022 H       1  UNL1        0.1555
     22 N         139.0826  139.5109  167.2149 N.ar    1  UNL1       -0.2383
     23 N         138.9436  139.5568  168.7077 N.ar    1  UNL1       -0.1729
     24 C         140.1512  140.2509  169.2646 C.ar    1  UNL1        0.0773
     25 C         141.0364  140.6341  168.1159 C.ar    1  UNL1        0.0244
     26 C         140.3760  140.1767  166.8491 C.ar    1  UNL1        0.1275
     27 C         142.3295  141.3499  168.3717 C.3     1  UNL1        0.0305
     28 C         142.7373  141.6826  169.7763 C.3     1  UNL1        0.0052
     29 C         141.8520  141.2995  170.9250 C.3     1  UNL1        0.0067
     30 C         140.5590  140.5836  170.6692 C.3     1  UNL1        0.0474
     31 C         138.4751  137.6840  165.4703 C.3     1  UNL1        0.0285
     32 C         138.1005  138.9055  166.2562 C.3     1  UNL1        0.1289
@<TRIPOS>BOND
     1    31    32    1
     2    32    22    1
     3    22    23   ar
     4    23    24   ar
     5    24    25   ar
     6    25    26   ar
     7    26    20    1
     8    20     1    1
     9     1     2   ar
    10     2     3   ar
    11     3     6    1
    12     6     7   ar
    13     7     8   ar
    14     8     9   ar
    15     9    12    1
    16    12    13   ar
    17    13    14   ar
    18    14    15   ar
    19    15    16    1
    20    15    17   ar
    21     9    10   ar
    22    10    18    1
    23    18    19    1
    24    10    11   ar
    25     3     4   ar
    26     4     5   ar
    27    25    27    1
    28    27    28    1
    29    28    29    1
    30    29    30    1
    31    26    22   ar
    32     5     1   ar
    33    30    24    1
    34    11     6   ar
    35    17    12   ar
    36    20    21    1
