@<TRIPOS>MOLECULE
*****
 27 30 0 0 0
SMALL
GASTEIGER

@<TRIPOS>ATOM
      1 C         139.8444  140.2286  168.8841 C.3     1  UNL1        0.2120
      2 O         138.5378  139.4921  168.8771 O.3     1  UNL1       -0.4344
      3 C         138.2833  139.0128  167.4787 C.2     1  UNL1        0.4089
      4 O         137.0891  138.2305  167.0184 O.2     1  UNL1       -0.2258
      5 N         139.4327  139.4531  166.6214 N.am    1  UNL1       -0.2163
      6 C         139.7255  139.2670  165.1621 C.ar    1  UNL1        0.0933
      7 C         138.7606  138.5155  164.2935 C.ar    1  UNL1        0.0490
      8 C         139.0534  138.3294  162.8342 C.ar    1  UNL1        0.1548
      9 F         138.0885  137.5779  161.9655 F       1  UNL1       -0.2028
     10 C         140.3110  138.8946  162.2434 C.ar    1  UNL1        0.0788
     11 C         141.2758  139.6460  163.1120 C.ar    1  UNL1        0.0550
     12 C         140.9831  139.8322  164.5714 C.ar    1  UNL1        0.1536
     13 O         141.9479  140.5836  165.4399 O.3     1  UNL1       -0.4722
     14 C         141.6551  140.7698  166.8992 C.3     1  UNL1        0.2293
     15 C         140.3975  140.2045  167.4900 C.3     1  UNL1        0.1682
     16 N         140.6037  138.7084  160.7841 N.pl3   1  UNL1       -0.3039
     17 C         139.5429  138.9969  159.7636 C.3     1  UNL1        0.1025
     18 C         139.8357  138.8107  158.3043 C.3     1  UNL1        0.0790
     19 S         141.1892  138.3360  157.8655 S.3     1  UNL1       -0.1367
     20 C         142.2500  138.0475  158.8860 C.3     1  UNL1        0.0790
     21 C         141.9572  138.2337  160.3453 C.3     1  UNL1        0.1025
     22 C         140.4855  140.8757  170.0759 C.3     1  UNL1        0.1353
     23 C         144.1060  142.4845  169.8446 C.3     1  UNL1        0.0946
     24 C         143.0131  141.4752  170.0365 C.2     1  UNL1        0.2231
     25 O         143.3551  140.0558  170.3808 O.2     1  UNL1       -0.2751
     26 N         141.5783  141.8850  169.8840 N.am    1  UNL1       -0.3011
     27 H         141.3539  142.8166  169.6580 H       1  UNL1        0.1495
@<TRIPOS>BOND
     1    23    24    1
     2    24    25    2
     3    24    26   am
     4    26    22    1
     5     1    22    1
     6     1     2    1
     7     2     3    1
     8     3     4    2
     9     3     5   am
    10     5     6    1
    11     6     7   ar
    12     7     8   ar
    13     8     9    1
    14     8    10   ar
    15    10    16    1
    16    16    17    1
    17    17    18    1
    18    18    19    1
    19    19    20    1
    20    20    21    1
    21    10    11   ar
    22    11    12   ar
    23    12    13    1
    24    13    14    1
    25    15    14    1
    26    15     1    1
    27    15     5    1
    28    12     6   ar
    29    21    16    1
    30    26    27    1
@<TRIPOS>MOLECULE
*****
 27 30 0 0 0
SMALL
GASTEIGER

@<TRIPOS>ATOM
      1 C         142.4883  138.8497  169.8531 C.3     1  UNL1        0.2120
      2 O         141.6412  139.7322  170.7212 O.3     1  UNL1       -0.4344
      3 C         141.0542  140.8078  169.8560 C.2     1  UNL1        0.4089
      4 O         140.1429  141.9079  170.3132 O.2     1  UNL1       -0.2258
      5 N         141.5387  140.5901  168.4531 N.am    1  UNL1       -0.2163
      6 C         141.2873  141.3374  167.1771 C.ar    1  UNL1        0.0933
      7 C         140.4009  142.5476  167.1788 C.ar    1  UNL1        0.0490
      8 C         140.1495  143.2949  165.9028 C.ar    1  UNL1        0.1548
      9 F         139.2631  144.5051  165.9046 F       1  UNL1       -0.2028
     10 C         140.7844  142.8322  164.6251 C.ar    1  UNL1        0.0788
     11 C         141.6707  141.6221  164.6233 C.ar    1  UNL1        0.0550
     12 C         141.9222  140.8747  165.8993 C.ar    1  UNL1        0.1536
     13 O         142.8085  139.6646  165.8976 O.3     1  UNL1       -0.4722
     14 C         143.0599  138.9172  167.1736 C.3     1  UNL1        0.2293
     15 C         142.4250  139.3800  168.4514 C.3     1  UNL1        0.1682
     16 N         140.5329  143.5796  163.3490 N.pl3   1  UNL1       -0.3039
     17 C         140.8559  145.0416  163.2601 C.3     1  UNL1        0.1025
     18 C         140.6045  145.7889  161.9841 C.3     1  UNL1        0.0790
     19 S         140.0300  145.0742  160.7970 S.3     1  UNL1       -0.1367
     20 C         139.7070  143.6121  160.8859 C.3     1  UNL1        0.0790
     21 C         139.9585  142.8648  162.1619 C.3     1  UNL1        0.1025
     22 C         143.2629  137.6481  170.3071 C.3     1  UNL1        0.1353
     23 C         146.1034  136.7217  172.9192 C.3     1  UNL1        0.0946
     24 C         145.0849  136.5885  171.8261 C.2     1  UNL1        0.2231
     25 O         144.8696  135.2623  171.1591 O.2     1  UNL1       -0.2751
     26 N         144.2815  137.7813  171.4001 N.am    1  UNL1       -0.3011
     27 H         144.4227  138.6518  171.8379 H       1  UNL1        0.1495
@<TRIPOS>BOND
     1    23    24    1
     2    24    25    2
     3    24    26   am
     4    26    22    1
     5     1    22    1
     6     1     2    1
     7     2     3    1
     8     3     4    2
     9     3     5   am
    10     5     6    1
    11     6     7   ar
    12     7     8   ar
    13     8     9    1
    14     8    10   ar
    15    10    16    1
    16    16    17    1
    17    17    18    1
    18    18    19    1
    19    19    20    1
    20    20    21    1
    21    10    11   ar
    22    11    12   ar
    23    12    13    1
    24    13    14    1
    25    15    14    1
    26    15     1    1
    27    15     5    1
    28    12     6   ar
    29    21    16    1
    30    26    27    1
@<TRIPOS>MOLECULE
*****
 27 30 0 0 0
SMALL
GASTEIGER

@<TRIPOS>ATOM
      1 C         143.5396  142.2760  169.8739 C.3     1  UNL1        0.2120
      2 O         142.5091  141.6777  170.7849 O.3     1  UNL1       -0.4344
      3 C         141.4023  141.1275  169.9349 C.2     1  UNL1        0.4089
      4 O         140.1661  140.4398  170.4337 O.2     1  UNL1       -0.2258
      5 N         141.7488  141.3858  168.4985 N.am    1  UNL1       -0.2163
      6 C         141.0323  141.0664  167.2201 C.ar    1  UNL1        0.0933
      7 C         139.7113  140.3566  167.2578 C.ar    1  UNL1        0.0490
      8 C         138.9948  140.0372  165.9793 C.ar    1  UNL1        0.1548
      9 F         137.6738  139.3274  166.0170 F       1  UNL1       -0.2028
     10 C         139.5991  140.4276  164.6631 C.ar    1  UNL1        0.0788
     11 C         140.9199  141.1374  164.6254 C.ar    1  UNL1        0.0550
     12 C         141.6366  141.4568  165.9039 C.ar    1  UNL1        0.1536
     13 O         142.9574  142.1666  165.8661 O.3     1  UNL1       -0.4722
     14 C         143.6740  142.4860  167.1446 C.3     1  UNL1        0.2293
     15 C         143.0697  142.0956  168.4608 C.3     1  UNL1        0.1682
     16 N         138.8825  140.1082  163.3846 N.pl3   1  UNL1       -0.3039
     17 C         138.5728  138.6830  163.0343 C.3     1  UNL1        0.1025
     18 C         137.8562  138.3636  161.7559 C.3     1  UNL1        0.0790
     19 S         137.4493  139.4695  160.8277 S.3     1  UNL1       -0.1367
     20 C         137.7590  140.8947  161.1780 C.3     1  UNL1        0.0790
     21 C         138.4756  141.2141  162.4565 C.3     1  UNL1        0.1025
     22 C         144.8158  142.9384  170.3009 C.3     1  UNL1        0.1353
     23 C         145.9798  146.2161  172.2118 C.3     1  UNL1        0.0946
     24 C         146.0240  144.9730  171.3736 C.2     1  UNL1        0.2231
     25 O         147.3207  144.5212  170.7699 O.2     1  UNL1       -0.2751
     26 N         144.7716  144.1816  171.1391 N.am    1  UNL1       -0.3011
     27 H         143.9205  144.4781  171.5353 H       1  UNL1        0.1495
@<TRIPOS>BOND
     1    23    24    1
     2    24    25    2
     3    24    26   am
     4    26    22    1
     5     1    22    1
     6     1     2    1
     7     2     3    1
     8     3     4    2
     9     3     5   am
    10     5     6    1
    11     6     7   ar
    12     7     8   ar
    13     8     9    1
    14     8    10   ar
    15    10    16    1
    16    16    17    1
    17    17    18    1
    18    18    19    1
    19    19    20    1
    20    20    21    1
    21    10    11   ar
    22    11    12   ar
    23    12    13    1
    24    13    14    1
    25    15    14    1
    26    15     1    1
    27    15     5    1
    28    12     6   ar
    29    21    16    1
    30    26    27    1
@<TRIPOS>MOLECULE
*****
 27 30 0 0 0
SMALL
GASTEIGER

@<TRIPOS>ATOM
      1 C         141.0215  144.9968  160.6058 C.3     1  UNL1        0.2120
      2 O         142.4053  144.4515  160.4119 O.3     1  UNL1       -0.4344
      3 C         142.8146  143.7641  161.6807 C.2     1  UNL1        0.4089
      4 O         144.1248  143.0769  161.9281 O.2     1  UNL1       -0.2258
      5 N         141.6838  143.8845  162.6588 N.am    1  UNL1       -0.2163
      6 C         141.5200  143.3989  164.0685 C.ar    1  UNL1        0.0933
      7 C         142.6282  142.6370  164.7329 C.ar    1  UNL1        0.0490
      8 C         142.4644  142.1514  166.1426 C.ar    1  UNL1        0.1548
      9 F         143.5727  141.3896  166.8070 F       1  UNL1       -0.2028
     10 C         141.1924  142.4277  166.8880 C.ar    1  UNL1        0.0788
     11 C         140.0841  143.1895  166.2237 C.ar    1  UNL1        0.0550
     12 C         140.2479  143.6751  164.8139 C.ar    1  UNL1        0.1536
     13 O         139.1397  144.4370  164.1496 O.3     1  UNL1       -0.4722
     14 C         139.3035  144.9226  162.7399 C.3     1  UNL1        0.2293
     15 C         140.5755  144.6464  161.9945 C.3     1  UNL1        0.1682
     16 N         141.0286  141.9420  168.2978 N.pl3   1  UNL1       -0.3039
     17 C         141.7428  142.6377  169.4184 C.3     1  UNL1        0.1025
     18 C         141.5790  142.1520  170.8281 C.3     1  UNL1        0.0790
     19 S         140.7010  140.9707  171.1171 S.3     1  UNL1       -0.1367
     20 C         139.9868  140.2750  169.9965 C.3     1  UNL1        0.0790
     21 C         140.1506  140.7606  168.5868 C.3     1  UNL1        0.1025
     22 C         140.2236  145.7587  159.5895 C.3     1  UNL1        0.1353
     23 C         141.2816  145.0984  155.8219 C.3     1  UNL1        0.0946
     24 C         141.3278  145.5691  157.2454 C.2     1  UNL1        0.2231
     25 O         142.5244  146.3208  157.7483 O.2     1  UNL1       -0.2751
     26 N         140.1774  145.2881  158.1660 N.am    1  UNL1       -0.3011
     27 H         139.3920  144.7947  157.8359 H       1  UNL1        0.1495
@<TRIPOS>BOND
     1    23    24    1
     2    24    25    2
     3    24    26   am
     4    26    22    1
     5     1    22    1
     6     1     2    1
     7     2     3    1
     8     3     4    2
     9     3     5   am
    10     5     6    1
    11     6     7   ar
    12     7     8   ar
    13     8     9    1
    14     8    10   ar
    15    10    16    1
    16    16    17    1
    17    17    18    1
    18    18    19    1
    19    19    20    1
    20    20    21    1
    21    10    11   ar
    22    11    12   ar
    23    12    13    1
    24    13    14    1
    25    15    14    1
    26    15     1    1
    27    15     5    1
    28    12     6   ar
    29    21    16    1
    30    26    27    1
@<TRIPOS>MOLECULE
*****
 27 30 0 0 0
SMALL
GASTEIGER

@<TRIPOS>ATOM
      1 C         141.2815  144.9399  159.5431 C.3     1  UNL1        0.2120
      2 O         139.9776  145.5423  159.9755 O.3     1  UNL1       -0.4344
      3 C         139.7482  145.1702  161.4104 C.2     1  UNL1        0.4089
      4 O         138.5645  145.5617  162.2444 O.2     1  UNL1       -0.2258
      5 N         140.9103  144.3378  161.8648 N.am    1  UNL1       -0.2163
      6 C         141.2281  143.6910  163.1804 C.ar    1  UNL1        0.0933
      7 C         140.2804  143.8333  164.3344 C.ar    1  UNL1        0.0490
      8 C         140.5982  143.1865  165.6499 C.ar    1  UNL1        0.1548
      9 F         139.6505  143.3288  166.8040 F       1  UNL1       -0.2028
     10 C         141.8636  142.3974  165.8115 C.ar    1  UNL1        0.0788
     11 C         142.8112  142.2550  164.6575 C.ar    1  UNL1        0.0550
     12 C         142.4934  142.9018  163.3419 C.ar    1  UNL1        0.1536
     13 O         143.4411  142.7595  162.1879 O.3     1  UNL1       -0.4722
     14 C         143.1233  143.4063  160.8724 C.3     1  UNL1        0.2293
     15 C         141.8579  144.1954  160.7109 C.3     1  UNL1        0.1682
     16 N         142.1813  141.7506  167.1271 N.pl3   1  UNL1       -0.3039
     17 C         143.0633  142.4545  168.1153 C.3     1  UNL1        0.1025
     18 C         143.3810  141.8077  169.4308 C.3     1  UNL1        0.0790
     19 S         142.8167  140.4570  169.7582 S.3     1  UNL1       -0.1367
     20 C         141.9347  139.7530  168.7700 C.3     1  UNL1        0.0790
     21 C         141.6170  140.3998  167.4544 C.3     1  UNL1        0.1025
     22 C         141.9003  145.0607  158.1821 C.3     1  UNL1        0.1353
     23 C         139.8295  147.1462  155.5151 C.3     1  UNL1        0.0946
     24 C         140.2452  146.0342  156.4319 C.2     1  UNL1        0.2231
     25 O         139.4214  144.7834  156.5154 O.2     1  UNL1       -0.2751
     26 N         141.4846  146.1728  157.2652 N.am    1  UNL1       -0.3011
     27 H         142.0254  146.9936  157.2105 H       1  UNL1        0.1495
@<TRIPOS>BOND
     1    23    24    1
     2    24    25    2
     3    24    26   am
     4    26    22    1
     5     1    22    1
     6     1     2    1
     7     2     3    1
     8     3     4    2
     9     3     5   am
    10     5     6    1
    11     6     7   ar
    12     7     8   ar
    13     8     9    1
    14     8    10   ar
    15    10    16    1
    16    16    17    1
    17    17    18    1
    18    18    19    1
    19    19    20    1
    20    20    21    1
    21    10    11   ar
    22    11    12   ar
    23    12    13    1
    24    13    14    1
    25    15    14    1
    26    15     1    1
    27    15     5    1
    28    12     6   ar
    29    21    16    1
    30    26    27    1
@<TRIPOS>MOLECULE
*****
 27 30 0 0 0
SMALL
GASTEIGER

@<TRIPOS>ATOM
      1 C         143.2939  138.3260  160.6695 C.3     1  UNL1        0.2120
      2 O         144.3111  139.4187  160.5236 O.3     1  UNL1       -0.4344
      3 C         144.3336  140.2046  161.8010 C.2     1  UNL1        0.4089
      4 O         145.2063  141.3895  162.0919 O.2     1  UNL1       -0.2258
      5 N         143.3303  139.5978  162.7364 N.am    1  UNL1       -0.2163
      6 C         142.9188  139.9524  164.1346 C.ar    1  UNL1        0.0933
      7 C         143.5614  141.1135  164.8339 C.ar    1  UNL1        0.0490
      8 C         143.1499  141.4680  166.2321 C.ar    1  UNL1        0.1548
      9 F         143.7925  142.6291  166.9314 F       1  UNL1       -0.2028
     10 C         142.0958  140.6616  166.9310 C.ar    1  UNL1        0.0788
     11 C         141.4531  139.5006  166.2317 C.ar    1  UNL1        0.0550
     12 C         141.8646  139.1459  164.8335 C.ar    1  UNL1        0.1536
     13 O         141.2220  137.9849  164.1342 O.3     1  UNL1       -0.4722
     14 C         141.6335  137.6303  162.7361 C.3     1  UNL1        0.2293
     15 C         142.6877  138.4368  162.0372 C.3     1  UNL1        0.1682
     16 N         141.6843  141.0162  168.3292 N.pl3   1  UNL1       -0.3039
     17 C         140.4563  141.8456  168.5621 C.3     1  UNL1        0.1025
     18 C         140.0449  142.2002  169.9602 C.3     1  UNL1        0.0790
     19 S         140.8614  141.7254  171.1255 S.3     1  UNL1       -0.1367
     20 C         142.0893  140.8960  170.8927 C.3     1  UNL1        0.0790
     21 C         142.5007  140.5414  169.4945 C.3     1  UNL1        0.1025
     22 C         142.9442  137.3024  159.6303 C.3     1  UNL1        0.1353
     23 C         142.9290  137.0276  155.6713 C.3     1  UNL1        0.0946
     24 C         142.9835  136.6384  157.1189 C.2     1  UNL1        0.2231
     25 O         143.1317  135.1959  157.5026 O.2     1  UNL1       -0.2751
     26 N         142.8897  137.6916  158.1827 N.am    1  UNL1       -0.3011
     27 H         142.7924  138.6384  157.9309 H       1  UNL1        0.1495
@<TRIPOS>BOND
     1    23    24    1
     2    24    25    2
     3    24    26   am
     4    26    22    1
     5     1    22    1
     6     1     2    1
     7     2     3    1
     8     3     4    2
     9     3     5   am
    10     5     6    1
    11     6     7   ar
    12     7     8   ar
    13     8     9    1
    14     8    10   ar
    15    10    16    1
    16    16    17    1
    17    17    18    1
    18    18    19    1
    19    19    20    1
    20    20    21    1
    21    10    11   ar
    22    11    12   ar
    23    12    13    1
    24    13    14    1
    25    15    14    1
    26    15     1    1
    27    15     5    1
    28    12     6   ar
    29    21    16    1
    30    26    27    1
@<TRIPOS>MOLECULE
*****
 27 30 0 0 0
SMALL
GASTEIGER

@<TRIPOS>ATOM
      1 C         143.7597  141.0916  159.4796 C.3     1  UNL1        0.2120
      2 O         144.1087  139.6332  159.5152 O.3     1  UNL1       -0.4344
      3 C         144.0065  139.1667  160.9372 C.2     1  UNL1        0.4089
      4 O         144.2703  137.7745  161.4295 O.2     1  UNL1       -0.2258
      5 N         143.5943  140.3367  161.7804 N.am    1  UNL1       -0.2163
      6 C         143.3382  140.4726  163.2521 C.ar    1  UNL1        0.0933
      7 C         143.4908  139.2829  164.1530 C.ar    1  UNL1        0.0490
      8 C         143.2346  139.4188  165.6246 C.ar    1  UNL1        0.1548
      9 F         143.3872  138.2291  166.5255 F       1  UNL1       -0.2028
     10 C         142.8259  140.7444  166.1955 C.ar    1  UNL1        0.0788
     11 C         142.6733  141.9340  165.2948 C.ar    1  UNL1        0.0550
     12 C         142.9295  141.7981  163.8230 C.ar    1  UNL1        0.1536
     13 O         142.7769  142.9878  162.9222 O.3     1  UNL1       -0.4722
     14 C         143.0331  142.8519  161.4506 C.3     1  UNL1        0.2293
     15 C         143.4418  141.5264  160.8797 C.3     1  UNL1        0.1682
     16 N         142.5698  140.8802  167.6673 N.pl3   1  UNL1       -0.3039
     17 C         143.2057  141.9981  168.4392 C.3     1  UNL1        0.1025
     18 C         142.9495  142.1339  169.9109 C.3     1  UNL1        0.0790
     19 S         142.0574  141.1518  170.6107 S.3     1  UNL1       -0.1367
     20 C         141.4215  140.0339  169.8388 C.3     1  UNL1        0.0790
     21 C         141.6777  139.8981  168.3671 C.3     1  UNL1        0.1025
     22 C         143.7332  141.9623  158.2585 C.3     1  UNL1        0.1353
     23 C         147.1708  142.3484  156.3133 C.3     1  UNL1        0.0946
     24 C         145.8979  141.7524  156.8372 C.2     1  UNL1        0.2231
     25 O         145.5167  140.3506  156.4637 O.2     1  UNL1       -0.2751
     26 N         145.0061  142.5583  157.7346 N.am    1  UNL1       -0.3011
     27 H         145.2563  143.4783  157.9798 H       1  UNL1        0.1495
@<TRIPOS>BOND
     1    23    24    1
     2    24    25    2
     3    24    26   am
     4    26    22    1
     5     1    22    1
     6     1     2    1
     7     2     3    1
     8     3     4    2
     9     3     5   am
    10     5     6    1
    11     6     7   ar
    12     7     8   ar
    13     8     9    1
    14     8    10   ar
    15    10    16    1
    16    16    17    1
    17    17    18    1
    18    18    19    1
    19    19    20    1
    20    20    21    1
    21    10    11   ar
    22    11    12   ar
    23    12    13    1
    24    13    14    1
    25    15    14    1
    26    15     1    1
    27    15     5    1
    28    12     6   ar
    29    21    16    1
    30    26    27    1
@<TRIPOS>MOLECULE
*****
 27 30 0 0 0
SMALL
GASTEIGER

@<TRIPOS>ATOM
      1 C         138.6617  141.4577  160.0642 C.3     1  UNL1        0.2120
      2 O         138.1859  142.8576  160.3172 O.3     1  UNL1       -0.4344
      3 C         138.4663  143.1900  161.7528 C.2     1  UNL1        0.4089
      4 O         138.1527  144.4888  162.4346 O.2     1  UNL1       -0.2258
      5 N         139.1153  141.9956  162.3870 N.am    1  UNL1       -0.2163
      6 C         139.6120  141.7446  163.7799 C.ar    1  UNL1        0.0933
      7 C         139.4912  142.8152  164.8236 C.ar    1  UNL1        0.0490
      8 C         139.9879  142.5642  166.2166 C.ar    1  UNL1        0.1548
      9 F         139.8671  143.6348  167.2603 F       1  UNL1       -0.2028
     10 C         140.6053  141.2425  166.5659 C.ar    1  UNL1        0.0788
     11 C         140.7261  140.1719  165.5223 C.ar    1  UNL1        0.0550
     12 C         140.2294  140.4229  164.1293 C.ar    1  UNL1        0.1536
     13 O         140.3502  139.3523  163.0857 O.3     1  UNL1       -0.4722
     14 C         139.8535  139.6034  161.6927 C.3     1  UNL1        0.2293
     15 C         139.2361  140.9250  161.3434 C.3     1  UNL1        0.1682
     16 N         141.1020  140.9915  167.9589 N.pl3   1  UNL1       -0.3039
     17 C         142.5559  141.1719  168.2806 C.3     1  UNL1        0.1025
     18 C         143.0525  140.9209  169.6736 C.3     1  UNL1        0.0790
     19 S         142.0951  140.4895  170.7448 S.3     1  UNL1       -0.1367
     20 C         140.6412  140.3091  170.4230 C.3     1  UNL1        0.0790
     21 C         140.1446  140.5602  169.0301 C.3     1  UNL1        0.1025
     22 C         138.5778  140.7201  158.7608 C.3     1  UNL1        0.1353
     23 C         135.5348  140.7853  156.2141 C.3     1  UNL1        0.0946
     24 C         136.8724  141.0669  156.8317 C.2     1  UNL1        0.2231
     25 O         137.8423  141.9769  156.1380 O.2     1  UNL1       -0.2751
     26 N         137.2402  140.4385  158.1431 N.am    1  UNL1       -0.3011
     27 H         136.6037  139.8413  158.5985 H       1  UNL1        0.1495
@<TRIPOS>BOND
     1    23    24    1
     2    24    25    2
     3    24    26   am
     4    26    22    1
     5     1    22    1
     6     1     2    1
     7     2     3    1
     8     3     4    2
     9     3     5   am
    10     5     6    1
    11     6     7   ar
    12     7     8   ar
    13     8     9    1
    14     8    10   ar
    15    10    16    1
    16    16    17    1
    17    17    18    1
    18    18    19    1
    19    19    20    1
    20    20    21    1
    21    10    11   ar
    22    11    12   ar
    23    12    13    1
    24    13    14    1
    25    15    14    1
    26    15     1    1
    27    15     5    1
    28    12     6   ar
    29    21    16    1
    30    26    27    1
@<TRIPOS>MOLECULE
*****
 27 30 0 0 0
SMALL
GASTEIGER

@<TRIPOS>ATOM
      1 C         142.5545  139.1801  169.9521 C.3     1  UNL1        0.2120
      2 O         141.3927  139.9000  170.5700 O.3     1  UNL1       -0.4344
      3 C         140.4977  140.3719  169.4626 C.2     1  UNL1        0.4089
      4 O         139.2186  141.1377  169.6283 O.2     1  UNL1       -0.2258
      5 N         141.1065  139.9437  168.1603 N.am    1  UNL1       -0.2163
      6 C         140.6676  140.1293  166.7380 C.ar    1  UNL1        0.0933
      7 C         139.3963  140.8659  166.4354 C.ar    1  UNL1        0.0490
      8 C         138.9574  141.0515  165.0131 C.ar    1  UNL1        0.1548
      9 F         137.6862  141.7881  164.7105 F       1  UNL1       -0.2028
     10 C         139.7897  140.5005  163.8934 C.ar    1  UNL1        0.0788
     11 C         141.0608  139.7639  164.1960 C.ar    1  UNL1        0.0550
     12 C         141.4998  139.5783  165.6183 C.ar    1  UNL1        0.1536
     13 O         142.7709  138.8417  165.9208 O.3     1  UNL1       -0.4722
     14 C         143.2098  138.6561  167.3431 C.3     1  UNL1        0.2293
     15 C         142.3776  139.2071  168.4628 C.3     1  UNL1        0.1682
     16 N         139.3507  140.6861  162.4711 N.pl3   1  UNL1       -0.3039
     17 C         140.0952  141.6294  161.5734 C.3     1  UNL1        0.1025
     18 C         139.6563  141.8150  160.1512 C.3     1  UNL1        0.0790
     19 S         138.4727  141.0573  159.6266 S.3     1  UNL1       -0.1367
     20 C         137.7282  140.1140  160.5243 C.3     1  UNL1        0.0790
     21 C         138.1672  139.9284  161.9465 C.3     1  UNL1        0.1025
     22 C         143.6933  138.5447  170.6934 C.3     1  UNL1        0.1353
     23 C         144.9192  134.9186  171.7414 C.3     1  UNL1        0.0946
     24 C         144.9193  136.3976  171.4914 C.2     1  UNL1        0.2231
     25 O         146.1454  137.2086  171.7895 O.2     1  UNL1       -0.2751
     26 N         143.6932  137.0657  170.9434 N.am    1  UNL1       -0.3011
     27 H         142.8885  136.5335  170.7477 H       1  UNL1        0.1495
@<TRIPOS>BOND
     1    23    24    1
     2    24    25    2
     3    24    26   am
     4    26    22    1
     5     1    22    1
     6     1     2    1
     7     2     3    1
     8     3     4    2
     9     3     5   am
    10     5     6    1
    11     6     7   ar
    12     7     8   ar
    13     8     9    1
    14     8    10   ar
    15    10    16    1
    16    16    17    1
    17    17    18    1
    18    18    19    1
    19    19    20    1
    20    20    21    1
    21    10    11   ar
    22    11    12   ar
    23    12    13    1
    24    13    14    1
    25    15    14    1
    26    15     1    1
    27    15     5    1
    28    12     6   ar
    29    21    16    1
    30    26    27    1
