@<TRIPOS>MOLECULE
*****
 35 38 0 0 0
SMALL
GASTEIGER

@<TRIPOS>ATOM
      1 C         138.4143  138.8823  163.0927 C.ar    1  UNL1        0.1040
      2 C         139.0521  137.7525  163.8454 C.ar    1  UNL1        0.1091
      3 N         139.1792  137.8231  165.3383 N.ar    1  UNL1       -0.2120
      4 C         138.6684  139.0235  166.0786 C.ar    1  UNL1        0.2181
      5 N         138.0306  140.1534  165.3259 N.ar    1  UNL1       -0.1986
      6 C         137.9036  140.0828  163.8329 C.ar    1  UNL1        0.1409
      7 N         139.3418  138.1181  160.7893 N.am    1  UNL1       -0.3252
      8 C         138.2873  138.8117  161.5997 C.2     1  UNL1        0.2470
      9 O         137.1058  139.4348  160.9173 O.2     1  UNL1       -0.2702
     10 H         139.2584  138.0718  159.8094 H       1  UNL1        0.1453
     11 H         140.1172  137.7091  161.2372 H       1  UNL1        0.1453
     12 N         138.7954  139.0941  167.5715 N.pl3   1  UNL1       -0.3033
     13 H         138.4426  138.3646  168.1306 H       1  UNL1        0.1496
     14 C         139.4600  140.2762  168.2126 C.3     1  UNL1        0.0858
     15 C         140.4521  141.0909  167.4368 C.3     1  UNL1        0.0209
     16 C         141.1167  142.2730  168.0779 C.3     1  UNL1        0.0018
     17 C         140.7892  142.6404  169.4948 C.3     1  UNL1        0.0015
     18 C         139.7971  141.8257  170.2707 C.3     1  UNL1        0.0172
     19 C         139.1325  140.6435  169.6296 C.3     1  UNL1        0.0690
     20 N         138.1404  139.8288  170.4054 N.3     1  UNL1       -0.3209
     21 H         138.0403  140.2177  171.3431 H       1  UNL1        0.1189
     22 H         138.4684  138.8652  170.4702 H       1  UNL1        0.1189
     23 N         137.2657  141.2127  163.0802 N.pl3   1  UNL1       -0.2977
     24 H         136.3736  141.0963  162.6805 H       1  UNL1        0.1536
     25 C         137.9871  142.5199  162.9366 C.ar    1  UNL1        0.0509
     26 C         138.0322  143.4820  164.0865 C.ar    1  UNL1        0.0147
     27 C         138.7537  144.7893  163.9428 C.ar    1  UNL1        0.0029
     28 C         139.4300  145.1344  162.6492 C.ar    1  UNL1        0.0210
     29 C         139.3849  144.1723  161.4993 C.ar    1  UNL1        0.1041
     30 C         138.6635  142.8651  161.6430 C.ar    1  UNL1        0.0355
     31 N         140.0613  144.5175  160.2057 N.ar    1  UNL1       -0.1478
     32 N         141.3806  145.2160  160.0596 N.ar    1  UNL1       -0.1447
     33 C         141.6718  145.3549  158.5947 C.ar    1  UNL1        0.1446
     34 C         140.5324  144.7422  157.8354 C.ar    1  UNL1        0.1446
     35 N         139.5370  144.2247  158.8311 N.ar    1  UNL1       -0.1447
@<TRIPOS>BOND
     1     7     8   am
     2     8     9    2
     3     8     1    1
     4     1     2   ar
     5     2     3   ar
     6     3     4   ar
     7     4    12    1
     8    14    12    1
     9    14    15    1
    10    15    16    1
    11    16    17    1
    12    17    18    1
    13    18    19    1
    14    19    20    1
    15     4     5   ar
    16     5     6   ar
    17     6    23    1
    18    23    25    1
    19    25    26   ar
    20    26    27   ar
    21    27    28   ar
    22    28    29   ar
    23    29    31    1
    24    31    32   ar
    25    32    33   ar
    26    33    34   ar
    27    34    35   ar
    28    29    30   ar
    29     6     1   ar
    30    30    25   ar
    31    19    14    1
    32    35    31   ar
    33     7    10    1
    34     7    11    1
    35    12    13    1
    36    20    21    1
    37    20    22    1
    38    23    24    1
@<TRIPOS>MOLECULE
*****
 35 38 0 0 0
SMALL
GASTEIGER

@<TRIPOS>ATOM
      1 C         140.9328  140.9192  169.5778 C.ar    1  UNL1        0.1040
      2 C         139.6074  140.3635  170.0073 C.ar    1  UNL1        0.1091
      3 N         138.7000  139.7238  168.9986 N.ar    1  UNL1       -0.2120
      4 C         139.1178  139.6399  167.5605 C.ar    1  UNL1        0.2181
      5 N         140.4432  140.1957  167.1310 N.ar    1  UNL1       -0.1986
      6 C         141.3507  140.8353  168.1396 C.ar    1  UNL1        0.1409
      7 N         142.5240  140.7155  171.6214 N.am    1  UNL1       -0.3252
      8 C         141.8403  141.5588  170.5864 C.2     1  UNL1        0.2470
      9 O         142.0640  143.0418  170.5600 O.2     1  UNL1       -0.2702
     10 H         143.1196  141.1353  172.2834 H       1  UNL1        0.1453
     11 H         142.3772  139.7422  171.6387 H       1  UNL1        0.1453
     12 N         138.2103  139.0003  166.5519 N.pl3   1  UNL1       -0.3033
     13 H         137.3082  138.7084  166.8167 H       1  UNL1        0.1496
     14 C         138.6774  138.8054  165.1399 C.3     1  UNL1        0.0858
     15 C         139.5165  137.6137  164.7851 C.3     1  UNL1        0.0209
     16 C         139.9836  137.4189  163.3731 C.3     1  UNL1        0.0018
     17 C         139.6116  138.4157  162.3158 C.3     1  UNL1        0.0015
     18 C         138.7725  139.6073  162.6704 C.3     1  UNL1        0.0172
     19 C         138.3054  139.8023  164.0825 C.3     1  UNL1        0.0690
     20 N         137.4663  140.9939  164.4372 N.3     1  UNL1       -0.3209
     21 H         137.3113  141.5609  163.6035 H       1  UNL1        0.1189
     22 H         137.9482  141.5512  165.1426 H       1  UNL1        0.1189
     23 N         142.6761  141.3910  167.7100 N.pl3   1  UNL1       -0.2977
     24 H         143.4940  141.1493  168.2019 H       1  UNL1        0.1536
     25 C         142.7554  142.3151  166.5312 C.ar    1  UNL1        0.0509
     26 C         144.0894  142.8022  166.0484 C.ar    1  UNL1        0.0147
     27 C         144.1687  143.7262  164.8694 C.ar    1  UNL1        0.0029
     28 C         142.9139  144.1632  164.1733 C.ar    1  UNL1        0.0210
     29 C         141.5799  143.6761  164.6561 C.ar    1  UNL1        0.1041
     30 C         141.5006  142.7521  165.8350 C.ar    1  UNL1        0.0355
     31 N         140.3251  144.1130  163.9600 N.ar    1  UNL1       -0.1478
     32 N         140.2398  145.0993  162.8330 N.ar    1  UNL1       -0.1447
     33 C         138.7973  145.2362  162.4451 C.ar    1  UNL1        0.1446
     34 C         137.9911  144.3346  163.3324 C.ar    1  UNL1        0.1446
     35 N         138.9353  143.6404  164.2686 N.ar    1  UNL1       -0.1447
@<TRIPOS>BOND
     1     7     8   am
     2     8     9    2
     3     8     1    1
     4     1     2   ar
     5     2     3   ar
     6     3     4   ar
     7     4    12    1
     8    14    12    1
     9    14    15    1
    10    15    16    1
    11    16    17    1
    12    17    18    1
    13    18    19    1
    14    19    20    1
    15     4     5   ar
    16     5     6   ar
    17     6    23    1
    18    23    25    1
    19    25    26   ar
    20    26    27   ar
    21    27    28   ar
    22    28    29   ar
    23    29    31    1
    24    31    32   ar
    25    32    33   ar
    26    33    34   ar
    27    34    35   ar
    28    29    30   ar
    29     6     1   ar
    30    30    25   ar
    31    19    14    1
    32    35    31   ar
    33     7    10    1
    34     7    11    1
    35    12    13    1
    36    20    21    1
    37    20    22    1
    38    23    24    1
@<TRIPOS>MOLECULE
*****
 35 38 0 0 0
SMALL
GASTEIGER

@<TRIPOS>ATOM
      1 C         138.3583  138.8133  163.0643 C.ar    1  UNL1        0.1040
      2 C         138.8068  137.6160  163.8488 C.ar    1  UNL1        0.1091
      3 N         138.8837  137.6857  165.3452 N.ar    1  UNL1       -0.2120
      4 C         138.5121  138.9525  166.0571 C.ar    1  UNL1        0.2181
      5 N         138.0636  140.1498  165.2727 N.ar    1  UNL1       -0.1986
      6 C         137.9867  140.0801  163.7763 C.ar    1  UNL1        0.1409
      7 N         139.2549  137.8947  160.8056 N.am    1  UNL1       -0.3252
      8 C         138.2813  138.7437  161.5679 C.2     1  UNL1        0.2470
      9 O         137.2308  139.5231  160.8339 O.2     1  UNL1       -0.2702
     10 H         139.2044  137.8490  159.8234 H       1  UNL1        0.1453
     11 H         139.9445  137.3831  161.2873 H       1  UNL1        0.1453
     12 N         138.5891  139.0221  167.5535 N.pl3   1  UNL1       -0.3033
     13 H         138.0907  138.3746  168.1027 H       1  UNL1        0.1496
     14 C         139.4253  140.0783  168.2132 C.3     1  UNL1        0.0858
     15 C         140.5507  140.7231  167.4597 C.3     1  UNL1        0.0209
     16 C         141.3869  141.7793  168.1194 C.3     1  UNL1        0.0018
     17 C         141.0978  142.1907  169.5326 C.3     1  UNL1        0.0015
     18 C         139.9724  141.5459  170.2861 C.3     1  UNL1        0.0172
     19 C         139.1362  140.4897  169.6264 C.3     1  UNL1        0.0690
     20 N         138.0108  139.8449  170.3800 N.3     1  UNL1       -0.3209
     21 H         137.9582  140.2420  171.3180 H       1  UNL1        0.1189
     22 H         138.1764  138.8406  170.4447 H       1  UNL1        0.1189
     23 N         137.5381  141.2775  162.9919 N.pl3   1  UNL1       -0.2977
     24 H         136.6736  141.2619  162.5212 H       1  UNL1        0.1536
     25 C         138.4068  142.4984  162.9246 C.ar    1  UNL1        0.0509
     26 C         137.7825  143.8617  162.8834 C.ar    1  UNL1        0.0147
     27 C         138.6513  145.0827  162.8161 C.ar    1  UNL1        0.0029
     28 C         140.1443  144.9404  162.7900 C.ar    1  UNL1        0.0210
     29 C         140.7686  143.5771  162.8311 C.ar    1  UNL1        0.1041
     30 C         139.8999  142.3561  162.8984 C.ar    1  UNL1        0.0355
     31 N         142.2615  143.4347  162.8050 N.ar    1  UNL1       -0.1478
     32 N         143.0630  142.4125  163.5551 N.ar    1  UNL1       -0.1447
     33 C         144.5120  142.6356  163.2379 C.ar    1  UNL1        0.1446
     34 C         144.6061  143.7958  162.2916 C.ar    1  UNL1        0.1446
     35 N         143.2152  144.2896  162.0241 N.ar    1  UNL1       -0.1447
@<TRIPOS>BOND
     1     7     8   am
     2     8     9    2
     3     8     1    1
     4     1     2   ar
     5     2     3   ar
     6     3     4   ar
     7     4    12    1
     8    14    12    1
     9    14    15    1
    10    15    16    1
    11    16    17    1
    12    17    18    1
    13    18    19    1
    14    19    20    1
    15     4     5   ar
    16     5     6   ar
    17     6    23    1
    18    23    25    1
    19    25    26   ar
    20    26    27   ar
    21    27    28   ar
    22    28    29   ar
    23    29    31    1
    24    31    32   ar
    25    32    33   ar
    26    33    34   ar
    27    34    35   ar
    28    29    30   ar
    29     6     1   ar
    30    30    25   ar
    31    19    14    1
    32    35    31   ar
    33     7    10    1
    34     7    11    1
    35    12    13    1
    36    20    21    1
    37    20    22    1
    38    23    24    1
@<TRIPOS>MOLECULE
*****
 35 38 0 0 0
SMALL
GASTEIGER

@<TRIPOS>ATOM
      1 C         141.8888  140.7015  168.9402 C.ar    1  UNL1        0.1040
      2 C         140.6593  139.9374  169.3332 C.ar    1  UNL1        0.1091
      3 N         139.5302  139.7805  168.3584 N.ar    1  UNL1       -0.2120
      4 C         139.6304  140.3877  166.9905 C.ar    1  UNL1        0.2181
      5 N         140.8599  141.1518  166.5974 N.ar    1  UNL1       -0.1986
      6 C         141.9891  141.3087  167.5723 C.ar    1  UNL1        0.1409
      7 N         143.3180  139.7654  170.8975 N.am    1  UNL1       -0.3252
      8 C         143.0180  140.8584  169.9151 C.2     1  UNL1        0.2470
      9 O         143.8471  142.1084  169.9075 O.2     1  UNL1       -0.2702
     10 H         144.0591  139.8684  171.5373 H       1  UNL1        0.1453
     11 H         142.7738  138.9450  170.9024 H       1  UNL1        0.1453
     12 N         138.5013  140.2308  166.0156 N.pl3   1  UNL1       -0.3033
     13 H         137.6216  140.6260  166.2136 H       1  UNL1        0.1496
     14 C         138.7124  139.4719  164.7392 C.3     1  UNL1        0.0858
     15 C         139.6255  138.2820  164.7163 C.3     1  UNL1        0.0209
     16 C         139.8367  137.5230  163.4399 C.3     1  UNL1        0.0018
     17 C         139.1348  137.9539  162.1862 C.3     1  UNL1        0.0015
     18 C         138.2217  139.1438  162.2090 C.3     1  UNL1        0.0172
     19 C         138.0105  139.9028  163.4855 C.3     1  UNL1        0.0690
     20 N         137.0975  141.0926  163.5083 N.3     1  UNL1       -0.3209
     21 H         136.7089  141.2409  162.5769 H       1  UNL1        0.1189
     22 H         137.6231  141.9191  163.7929 H       1  UNL1        0.1189
     23 N         143.2186  142.0729  167.1792 N.pl3   1  UNL1       -0.2977
     24 H         143.8179  142.4318  167.8729 H       1  UNL1        0.1536
     25 C         143.5350  142.2901  165.7292 C.ar    1  UNL1        0.0509
     26 C         143.8419  143.6698  165.2270 C.ar    1  UNL1        0.0147
     27 C         144.1583  143.8870  163.7769 C.ar    1  UNL1        0.0029
     28 C         144.1678  142.7245  162.8290 C.ar    1  UNL1        0.0210
     29 C         143.8608  141.3448  163.3312 C.ar    1  UNL1        0.1041
     30 C         143.5444  141.1276  164.7812 C.ar    1  UNL1        0.0355
     31 N         143.8703  140.1823  162.3833 N.ar    1  UNL1       -0.1478
     32 N         143.8549  140.2657  160.8857 N.ar    1  UNL1       -0.1447
     33 C         143.8719  138.8673  160.3434 C.ar    1  UNL1        0.1446
     34 C         143.8978  137.9196  161.5059 C.ar    1  UNL1        0.1446
     35 N         143.8969  138.7323  162.7666 N.ar    1  UNL1       -0.1447
@<TRIPOS>BOND
     1     7     8   am
     2     8     9    2
     3     8     1    1
     4     1     2   ar
     5     2     3   ar
     6     3     4   ar
     7     4    12    1
     8    14    12    1
     9    14    15    1
    10    15    16    1
    11    16    17    1
    12    17    18    1
    13    18    19    1
    14    19    20    1
    15     4     5   ar
    16     5     6   ar
    17     6    23    1
    18    23    25    1
    19    25    26   ar
    20    26    27   ar
    21    27    28   ar
    22    28    29   ar
    23    29    31    1
    24    31    32   ar
    25    32    33   ar
    26    33    34   ar
    27    34    35   ar
    28    29    30   ar
    29     6     1   ar
    30    30    25   ar
    31    19    14    1
    32    35    31   ar
    33     7    10    1
    34     7    11    1
    35    12    13    1
    36    20    21    1
    37    20    22    1
    38    23    24    1
@<TRIPOS>MOLECULE
*****
 35 38 0 0 0
SMALL
GASTEIGER

@<TRIPOS>ATOM
      1 C         139.3994  139.8441  167.7351 C.ar    1  UNL1        0.1040
      2 C         138.1241  139.1076  167.4506 C.ar    1  UNL1        0.1091
      3 N         137.9802  138.3190  166.1827 N.ar    1  UNL1       -0.2120
      4 C         139.1117  138.2670  165.1994 C.ar    1  UNL1        0.2181
      5 N         140.3870  139.0036  165.4839 N.ar    1  UNL1       -0.1986
      6 C         140.5309  139.7921  166.7517 C.ar    1  UNL1        0.1409
      7 N         139.0678  140.0555  170.3032 N.am    1  UNL1       -0.3252
      8 C         139.5433  140.6327  169.0029 C.2     1  UNL1        0.2470
      9 O         140.1626  141.9984  168.9705 O.2     1  UNL1       -0.2702
     10 H         139.1622  140.5731  171.1353 H       1  UNL1        0.1453
     11 H         138.6613  139.1591  170.3245 H       1  UNL1        0.1453
     12 N         138.9678  137.4784  163.9315 N.pl3   1  UNL1       -0.3033
     13 H         138.8123  136.5071  163.9709 H       1  UNL1        0.1496
     14 C         139.0609  138.1698  162.6036 C.3     1  UNL1        0.0858
     15 C         137.9193  139.0108  162.1142 C.3     1  UNL1        0.0209
     16 C         138.0124  139.7021  160.7863 C.3     1  UNL1        0.0018
     17 C         139.2471  139.5525  159.9478 C.3     1  UNL1        0.0015
     18 C         140.3887  138.7116  160.4372 C.3     1  UNL1        0.0172
     19 C         140.2956  138.0202  161.7651 C.3     1  UNL1        0.0690
     20 N         141.4372  137.1792  162.2545 N.3     1  UNL1       -0.3209
     21 H         142.1875  137.1892  161.5635 H       1  UNL1        0.1189
     22 H         141.1176  136.2210  162.3955 H       1  UNL1        0.1189
     23 N         141.8063  140.5287  167.0362 N.pl3   1  UNL1       -0.2977
     24 H         142.3586  140.2757  167.8109 H       1  UNL1        0.1536
     25 C         142.2401  141.6508  166.1403 C.ar    1  UNL1        0.0509
     26 C         143.6891  142.0308  166.0622 C.ar    1  UNL1        0.0147
     27 C         144.1230  143.1530  165.1663 C.ar    1  UNL1        0.0029
     28 C         143.1078  143.8951  164.3485 C.ar    1  UNL1        0.0210
     29 C         141.6589  143.5151  164.4266 C.ar    1  UNL1        0.1041
     30 C         141.2250  142.3930  165.3225 C.ar    1  UNL1        0.0355
     31 N         140.6438  144.2572  163.6089 N.ar    1  UNL1       -0.1478
     32 N         140.9031  145.4796  162.7791 N.ar    1  UNL1       -0.1447
     33 C         139.6107  145.8851  162.1347 C.ar    1  UNL1        0.1446
     34 C         138.5526  144.9134  162.5663 C.ar    1  UNL1        0.1446
     35 N         139.1911  143.9073  163.4774 N.ar    1  UNL1       -0.1447
@<TRIPOS>BOND
     1     7     8   am
     2     8     9    2
     3     8     1    1
     4     1     2   ar
     5     2     3   ar
     6     3     4   ar
     7     4    12    1
     8    14    12    1
     9    14    15    1
    10    15    16    1
    11    16    17    1
    12    17    18    1
    13    18    19    1
    14    19    20    1
    15     4     5   ar
    16     5     6   ar
    17     6    23    1
    18    23    25    1
    19    25    26   ar
    20    26    27   ar
    21    27    28   ar
    22    28    29   ar
    23    29    31    1
    24    31    32   ar
    25    32    33   ar
    26    33    34   ar
    27    34    35   ar
    28    29    30   ar
    29     6     1   ar
    30    30    25   ar
    31    19    14    1
    32    35    31   ar
    33     7    10    1
    34     7    11    1
    35    12    13    1
    36    20    21    1
    37    20    22    1
    38    23    24    1
@<TRIPOS>MOLECULE
*****
 35 38 0 0 0
SMALL
GASTEIGER

@<TRIPOS>ATOM
      1 C         139.8431  138.1788  164.4134 C.ar    1  UNL1        0.1040
      2 C         138.4297  138.3061  164.8992 C.ar    1  UNL1        0.1091
      3 N         138.1526  138.8726  166.2602 N.ar    1  UNL1       -0.2120
      4 C         139.2889  139.3117  167.1354 C.ar    1  UNL1        0.2181
      5 N         140.7022  139.1843  166.6496 N.ar    1  UNL1       -0.1986
      6 C         140.9794  138.6179  165.2887 C.ar    1  UNL1        0.1409
      7 N         139.1444  137.8335  161.9350 N.am    1  UNL1       -0.3252
      8 C         140.1203  137.6123  163.0524 C.2     1  UNL1        0.2470
      9 O         141.3733  136.8246  162.8089 O.2     1  UNL1       -0.2702
     10 H         139.3263  137.4617  161.0418 H       1  UNL1        0.1453
     11 H         138.3220  138.3506  162.0949 H       1  UNL1        0.1453
     12 N         139.0117  139.8781  168.4964 N.pl3   1  UNL1       -0.3033
     13 H         138.1865  139.6317  168.9735 H       1  UNL1        0.1496
     14 C         139.9918  140.8201  169.1306 C.3     1  UNL1        0.0858
     15 C         140.5133  141.9936  168.3554 C.3     1  UNL1        0.0209
     16 C         141.4934  142.9356  168.9896 C.3     1  UNL1        0.0018
     17 C         141.9520  142.7040  170.3988 C.3     1  UNL1        0.0015
     18 C         141.4305  141.5305  171.1740 C.3     1  UNL1        0.0172
     19 C         140.4504  140.5885  170.5398 C.3     1  UNL1        0.0690
     20 N         139.9289  139.4150  171.3150 N.3     1  UNL1       -0.3209
     21 H         140.3432  139.4119  172.2470 H       1  UNL1        0.1189
     22 H         140.1746  138.5514  170.8309 H       1  UNL1        0.1189
     23 N         142.3929  138.4905  164.8029 N.pl3   1  UNL1       -0.2977
     24 H         142.8342  137.6105  164.7975 H       1  UNL1        0.1536
     25 C         143.1340  139.7040  164.3253 C.ar    1  UNL1        0.0509
     26 C         144.6339  139.7154  164.3262 C.ar    1  UNL1        0.0147
     27 C         145.3750  140.9290  163.8485 C.ar    1  UNL1        0.0029
     28 C         144.6162  142.1311  163.3700 C.ar    1  UNL1        0.0210
     29 C         143.1162  142.1198  163.3692 C.ar    1  UNL1        0.1041
     30 C         142.3751  140.9063  163.8468 C.ar    1  UNL1        0.0355
     31 N         142.3574  143.3219  162.8907 N.ar    1  UNL1       -0.1478
     32 N         142.0787  143.6766  161.4601 N.ar    1  UNL1       -0.1447
     33 C         141.2930  144.9543  161.4440 C.ar    1  UNL1        0.1446
     34 C         141.0861  145.3892  162.8646 C.ar    1  UNL1        0.1446
     35 N         141.7439  144.3803  163.7587 N.ar    1  UNL1       -0.1447
@<TRIPOS>BOND
     1     7     8   am
     2     8     9    2
     3     8     1    1
     4     1     2   ar
     5     2     3   ar
     6     3     4   ar
     7     4    12    1
     8    14    12    1
     9    14    15    1
    10    15    16    1
    11    16    17    1
    12    17    18    1
    13    18    19    1
    14    19    20    1
    15     4     5   ar
    16     5     6   ar
    17     6    23    1
    18    23    25    1
    19    25    26   ar
    20    26    27   ar
    21    27    28   ar
    22    28    29   ar
    23    29    31    1
    24    31    32   ar
    25    32    33   ar
    26    33    34   ar
    27    34    35   ar
    28    29    30   ar
    29     6     1   ar
    30    30    25   ar
    31    19    14    1
    32    35    31   ar
    33     7    10    1
    34     7    11    1
    35    12    13    1
    36    20    21    1
    37    20    22    1
    38    23    24    1
@<TRIPOS>MOLECULE
*****
 35 38 0 0 0
SMALL
GASTEIGER

@<TRIPOS>ATOM
      1 C         141.0667  141.5124  169.1149 C.ar    1  UNL1        0.1040
      2 C         141.6325  140.2633  169.7227 C.ar    1  UNL1        0.1091
      3 N         142.4066  139.2997  168.8728 N.ar    1  UNL1       -0.2120
      4 C         142.6150  139.5853  167.4151 C.ar    1  UNL1        0.2181
      5 N         142.0492  140.8345  166.8073 N.ar    1  UNL1       -0.1986
      6 C         141.2751  141.7980  167.6572 C.ar    1  UNL1        0.1409
      7 N         140.8062  143.8693  170.1767 N.am    1  UNL1       -0.3252
      8 C         140.2926  142.4760  169.9647 C.2     1  UNL1        0.2470
      9 O         139.0049  142.0463  170.6027 O.2     1  UNL1       -0.2702
     10 H         140.2981  144.5017  170.7345 H       1  UNL1        0.1453
     11 H         141.6514  144.1513  169.7579 H       1  UNL1        0.1453
     12 N         143.3891  138.6218  166.5653 N.pl3   1  UNL1       -0.3033
     13 H         143.8318  137.8460  166.9793 H       1  UNL1        0.1496
     14 C         143.4888  138.8403  165.0846 C.3     1  UNL1        0.0858
     15 C         144.5865  139.6958  164.5250 C.3     1  UNL1        0.0209
     16 C         144.6862  139.9143  163.0443 C.3     1  UNL1        0.0018
     17 C         143.6883  139.2773  162.1233 C.3     1  UNL1        0.0015
     18 C         142.5906  138.4218  162.6829 C.3     1  UNL1        0.0172
     19 C         142.4908  138.2033  164.1636 C.3     1  UNL1        0.0690
     20 N         141.3932  137.3478  164.7232 N.3     1  UNL1       -0.3209
     21 H         140.8119  136.9990  163.9611 H       1  UNL1        0.1189
     22 H         140.8215  137.9021  165.3606 H       1  UNL1        0.1189
     23 N         140.7093  143.0472  167.0492 N.pl3   1  UNL1       -0.2977
     24 H         140.9813  143.9288  167.3929 H       1  UNL1        0.1536
     25 C         139.7292  142.9532  165.9177 C.ar    1  UNL1        0.0509
     26 C         138.9271  144.1562  165.5183 C.ar    1  UNL1        0.0147
     27 C         137.9470  144.0622  164.3867 C.ar    1  UNL1        0.0029
     28 C         137.7689  142.7652  163.6545 C.ar    1  UNL1        0.0210
     29 C         138.5709  141.5622  164.0539 C.ar    1  UNL1        0.1041
     30 C         139.5510  141.6562  165.1855 C.ar    1  UNL1        0.0355
     31 N         138.3928  140.2652  163.3218 N.ar    1  UNL1       -0.1478
     32 N         138.9069  138.9266  163.7619 N.ar    1  UNL1       -0.1447
     33 C         138.5011  137.9132  162.7331 C.ar    1  UNL1        0.1446
     34 C         137.7362  138.6255  161.6572 C.ar    1  UNL1        0.1446
     35 N         137.6693  140.0792  162.0210 N.ar    1  UNL1       -0.1447
@<TRIPOS>BOND
     1     7     8   am
     2     8     9    2
     3     8     1    1
     4     1     2   ar
     5     2     3   ar
     6     3     4   ar
     7     4    12    1
     8    14    12    1
     9    14    15    1
    10    15    16    1
    11    16    17    1
    12    17    18    1
    13    18    19    1
    14    19    20    1
    15     4     5   ar
    16     5     6   ar
    17     6    23    1
    18    23    25    1
    19    25    26   ar
    20    26    27   ar
    21    27    28   ar
    22    28    29   ar
    23    29    31    1
    24    31    32   ar
    25    32    33   ar
    26    33    34   ar
    27    34    35   ar
    28    29    30   ar
    29     6     1   ar
    30    30    25   ar
    31    19    14    1
    32    35    31   ar
    33     7    10    1
    34     7    11    1
    35    12    13    1
    36    20    21    1
    37    20    22    1
    38    23    24    1
@<TRIPOS>MOLECULE
*****
 35 38 0 0 0
SMALL
GASTEIGER

@<TRIPOS>ATOM
      1 C         139.0985  144.7732  162.4244 C.ar    1  UNL1        0.1040
      2 C         138.4698  144.6268  163.7784 C.ar    1  UNL1        0.1091
      3 N         137.7728  143.3509  164.1477 N.ar    1  UNL1       -0.2120
      4 C         137.7045  142.2214  163.1630 C.ar    1  UNL1        0.2181
      5 N         138.3332  142.3679  161.8090 N.ar    1  UNL1       -0.1986
      6 C         139.0302  143.6437  161.4397 C.ar    1  UNL1        0.1409
      7 N         141.0447  146.4576  162.7778 N.am    1  UNL1       -0.3252
      8 C         139.7954  146.0491  162.0551 C.2     1  UNL1        0.2470
      9 O         139.2431  146.9164  160.9631 O.2     1  UNL1       -0.2702
     10 H         141.5021  147.2950  162.5354 H       1  UNL1        0.1453
     11 H         141.4072  145.8883  163.4946 H       1  UNL1        0.1453
     12 N         137.0076  140.9456  163.5323 N.pl3   1  UNL1       -0.3033
     13 H         136.0245  140.8975  163.5103 H       1  UNL1        0.1496
     14 C         137.8084  139.7429  163.9351 C.3     1  UNL1        0.0858
     15 C         138.0899  139.4805  165.3850 C.3     1  UNL1        0.0209
     16 C         138.8908  138.2779  165.7878 C.3     1  UNL1        0.0018
     17 C         139.4102  137.3376  164.7408 C.3     1  UNL1        0.0015
     18 C         139.1287  137.6000  163.2910 C.3     1  UNL1        0.0172
     19 C         138.3278  138.8027  162.8881 C.3     1  UNL1        0.0690
     20 N         138.0464  139.0651  161.4384 N.3     1  UNL1       -0.3209
     21 H         138.4713  138.3313  160.8713 H       1  UNL1        0.1189
     22 H         138.4383  139.9689  161.1741 H       1  UNL1        0.1189
     23 N         139.6588  143.7901  160.0857 N.pl3   1  UNL1       -0.2977
     24 H         139.1325  144.1483  159.3347 H       1  UNL1        0.1536
     25 C         141.0893  143.3908  159.8758 C.ar    1  UNL1        0.0509
     26 C         141.6974  143.4713  158.5069 C.ar    1  UNL1        0.0147
     27 C         143.1280  143.0719  158.2971 C.ar    1  UNL1        0.0029
     28 C         143.9505  142.5920  159.4561 C.ar    1  UNL1        0.0210
     29 C         143.3424  142.5116  160.8250 C.ar    1  UNL1        0.1041
     30 C         141.9119  142.9109  161.0348 C.ar    1  UNL1        0.0355
     31 N         144.1648  142.0317  161.9840 N.ar    1  UNL1       -0.1478
     32 N         144.8051  142.8968  163.0288 N.ar    1  UNL1       -0.1447
     33 C         145.5274  142.0023  163.9922 C.ar    1  UNL1        0.1446
     34 C         145.3335  140.5843  163.5428 C.ar    1  UNL1        0.1446
     35 N         144.4913  140.6025  162.3016 N.ar    1  UNL1       -0.1447
@<TRIPOS>BOND
     1     7     8   am
     2     8     9    2
     3     8     1    1
     4     1     2   ar
     5     2     3   ar
     6     3     4   ar
     7     4    12    1
     8    14    12    1
     9    14    15    1
    10    15    16    1
    11    16    17    1
    12    17    18    1
    13    18    19    1
    14    19    20    1
    15     4     5   ar
    16     5     6   ar
    17     6    23    1
    18    23    25    1
    19    25    26   ar
    20    26    27   ar
    21    27    28   ar
    22    28    29   ar
    23    29    31    1
    24    31    32   ar
    25    32    33   ar
    26    33    34   ar
    27    34    35   ar
    28    29    30   ar
    29     6     1   ar
    30    30    25   ar
    31    19    14    1
    32    35    31   ar
    33     7    10    1
    34     7    11    1
    35    12    13    1
    36    20    21    1
    37    20    22    1
    38    23    24    1
@<TRIPOS>MOLECULE
*****
 35 38 0 0 0
SMALL
GASTEIGER

@<TRIPOS>ATOM
      1 C         140.6095  140.0186  168.7248 C.ar    1  UNL1        0.1040
      2 C         141.9329  139.5558  169.2579 C.ar    1  UNL1        0.1091
      3 N         142.9920  139.0671  168.3147 N.ar    1  UNL1       -0.2120
      4 C         142.7276  139.0412  166.8385 C.ar    1  UNL1        0.2181
      5 N         141.4042  139.5040  166.3054 N.ar    1  UNL1       -0.1986
      6 C         140.3451  139.9927  167.2486 C.ar    1  UNL1        0.1409
      7 N         139.7839  141.7458  170.4812 N.am    1  UNL1       -0.3252
      8 C         139.5504  140.5073  169.6680 C.2     1  UNL1        0.2470
      9 O         138.2579  139.7574  169.7979 O.2     1  UNL1       -0.2702
     10 H         139.0888  142.0665  171.1002 H       1  UNL1        0.1453
     11 H         140.6323  142.2380  170.3960 H       1  UNL1        0.1453
     12 N         143.7867  138.5525  165.8953 N.pl3   1  UNL1       -0.3033
     13 H         144.3439  137.7784  166.1392 H       1  UNL1        0.1496
     14 C         143.9968  139.2433  164.5806 C.3     1  UNL1        0.0858
     15 C         145.0553  140.2979  164.4481 C.3     1  UNL1        0.0209
     16 C         145.2655  140.9887  163.1334 C.3     1  UNL1        0.0018
     17 C         144.4171  140.6249  161.9510 C.3     1  UNL1        0.0015
     18 C         143.3586  139.5704  162.0834 C.3     1  UNL1        0.0172
     19 C         143.1485  138.8796  163.3982 C.3     1  UNL1        0.0690
     20 N         142.0900  137.8250  163.5306 N.3     1  UNL1       -0.3209
     21 H         141.6139  137.7071  162.6363 H       1  UNL1        0.1189
     22 H         141.4147  138.1084  164.2405 H       1  UNL1        0.1189
     23 N         139.0216  140.4555  166.7154 N.pl3   1  UNL1       -0.2977
     24 H         138.2722  140.6190  167.3326 H       1  UNL1        0.1536
     25 C         138.8399  140.6692  165.2419 C.ar    1  UNL1        0.0509
     26 C         138.2914  139.5662  164.3860 C.ar    1  UNL1        0.0147
     27 C         138.1097  139.7800  162.9125 C.ar    1  UNL1        0.0029
     28 C         138.4765  141.0968  162.2948 C.ar    1  UNL1        0.0210
     29 C         139.0250  142.1998  163.1506 C.ar    1  UNL1        0.1041
     30 C         139.2067  141.9861  164.6241 C.ar    1  UNL1        0.0355
     31 N         139.3918  143.5166  162.5330 N.ar    1  UNL1       -0.1478
     32 N         139.2710  144.8612  163.1867 N.ar    1  UNL1       -0.1447
     33 C         139.7483  145.8956  162.2109 C.ar    1  UNL1        0.1446
     34 C         140.1641  145.1902  160.9541 C.ar    1  UNL1        0.1446
     35 N         139.9438  143.7199  161.1531 N.ar    1  UNL1       -0.1447
@<TRIPOS>BOND
     1     7     8   am
     2     8     9    2
     3     8     1    1
     4     1     2   ar
     5     2     3   ar
     6     3     4   ar
     7     4    12    1
     8    14    12    1
     9    14    15    1
    10    15    16    1
    11    16    17    1
    12    17    18    1
    13    18    19    1
    14    19    20    1
    15     4     5   ar
    16     5     6   ar
    17     6    23    1
    18    23    25    1
    19    25    26   ar
    20    26    27   ar
    21    27    28   ar
    22    28    29   ar
    23    29    31    1
    24    31    32   ar
    25    32    33   ar
    26    33    34   ar
    27    34    35   ar
    28    29    30   ar
    29     6     1   ar
    30    30    25   ar
    31    19    14    1
    32    35    31   ar
    33     7    10    1
    34     7    11    1
    35    12    13    1
    36    20    21    1
    37    20    22    1
    38    23    24    1
