@<TRIPOS>MOLECULE
*****
 27 30 0 0 0
SMALL
GASTEIGER

@<TRIPOS>ATOM
      1 C         138.4181  138.0343  165.3998 C.3     1  UNL1        0.0360
      2 C         139.2177  139.1050  166.0813 C.2     1  UNL1        0.0348
      3 C         140.3176  139.8059  165.3404 C.2     1  UNL1        0.0800
      4 N         141.1172  140.8765  166.0217 N.2     1  UNL1       -0.2493
      5 C         140.8168  141.2464  167.4441 C.2     1  UNL1        0.0709
      6 C         141.6164  142.3171  168.1255 C.3     1  UNL1        0.1024
      7 C         141.3160  142.6869  169.5478 C.2     1  UNL1        0.1258
      8 F         142.1156  143.7576  170.2292 F       1  UNL1       -0.2084
      9 C         140.2161  141.9860  170.2887 C.2     1  UNL1        0.0553
     10 C         139.4165  140.9153  169.6073 C.2     1  UNL1        0.1462
     11 F         138.3166  140.2145  170.3482 F       1  UNL1       -0.2040
     12 C         139.7169  140.5455  168.1850 C.2     1  UNL1        0.0801
     13 C         138.9173  139.4748  167.5036 C.2     1  UNL1        0.1964
     14 O         137.8174  138.7739  168.2445 O.2     1  UNL1       -0.2867
     15 C         140.6179  139.4360  163.9180 C.ar    1  UNL1        0.0175
     16 C         141.5164  138.2727  163.6193 C.ar    1  UNL1        0.0028
     17 C         141.8167  137.9029  162.1969 C.ar    1  UNL1        0.0146
     18 C         141.2185  138.6964  161.0734 C.ar    1  UNL1        0.0480
     19 C         140.3200  139.8597  161.3721 C.ar    1  UNL1        0.0146
     20 C         140.0197  140.2295  162.7944 C.ar    1  UNL1        0.0028
     21 N         141.5189  138.3265  159.6510 N.pl3   1  UNL1       -0.3026
     22 C         142.8238  137.7971  159.1344 C.3     1  UNL1        0.0966
     23 C         142.6785  137.5645  157.6597 C.3     1  UNL1        0.0897
     24 C         141.2837  137.9503  157.2649 C.3     1  UNL1        0.2834
     25 F         141.7283  137.5421  155.8916 F       1  UNL1       -0.2024
     26 F         139.9819  138.2507  156.5829 F       1  UNL1       -0.2024
     27 C         140.5671  138.4212  158.4955 C.3     1  UNL1        0.1580
@<TRIPOS>BOND
     1     1     2    1
     2     2     3    2
     3     3    15    1
     4    15    16   ar
     5    16    17   ar
     6    17    18   ar
     7    18    21    1
     8    21    22    1
     9    22    23    1
    10    23    24    1
    11    24    25    1
    12    24    26    1
    13    24    27    1
    14    18    19   ar
    15    19    20   ar
    16     3     4    1
    17     4     5    2
    18     5     6    1
    19     6     7    1
    20     7     8    1
    21     7     9    2
    22     9    10    1
    23    10    11    1
    24    10    12    2
    25    12    13    1
    26    13    14    2
    27    13     2    1
    28    20    15   ar
    29    12     5    1
    30    27    21    1
@<TRIPOS>MOLECULE
*****
 27 30 0 0 0
SMALL
GASTEIGER

@<TRIPOS>ATOM
      1 C         138.1576  139.1890  166.2074 C.3     1  UNL1        0.0360
      2 C         139.3985  139.8732  166.6996 C.2     1  UNL1        0.0348
      3 C         140.4088  140.3906  165.7190 C.2     1  UNL1        0.0800
      4 N         141.6497  141.0747  166.2111 N.2     1  UNL1       -0.2493
      5 C         141.8803  141.2414  167.6839 C.2     1  UNL1        0.0709
      6 C         143.1212  141.9255  168.1761 C.3     1  UNL1        0.1024
      7 C         143.3517  142.0921  169.6488 C.2     1  UNL1        0.1258
      8 F         144.5927  142.7762  170.1410 F       1  UNL1       -0.2084
      9 C         142.3415  141.5747  170.6294 C.2     1  UNL1        0.0553
     10 C         141.1006  140.8906  170.1373 C.2     1  UNL1        0.1462
     11 F         140.0903  140.3732  171.1179 F       1  UNL1       -0.2040
     12 C         140.8700  140.7239  168.6646 C.2     1  UNL1        0.0801
     13 C         139.6291  140.0398  168.1724 C.2     1  UNL1        0.1964
     14 O         138.6188  139.5224  169.1530 O.2     1  UNL1       -0.2867
     15 C         140.1782  140.2239  164.2462 C.ar    1  UNL1        0.0175
     16 C         140.6173  138.9667  163.5559 C.ar    1  UNL1        0.0028
     17 C         140.3867  138.8000  162.0831 C.ar    1  UNL1        0.0146
     18 C         139.7169  139.8906  161.3007 C.ar    1  UNL1        0.0480
     19 C         139.2778  141.1478  161.9911 C.ar    1  UNL1        0.0146
     20 C         139.5084  141.3144  163.4638 C.ar    1  UNL1        0.0028
     21 N         139.4863  139.7239  159.8279 N.pl3   1  UNL1       -0.3026
     22 C         138.7261  140.6662  158.9423 C.3     1  UNL1        0.0966
     23 C         138.7453  140.1104  157.5492 C.3     1  UNL1        0.0897
     24 C         139.5174  138.8245  157.5739 C.3     1  UNL1        0.2834
     25 F         139.2073  138.7932  156.1066 F       1  UNL1       -0.2024
     26 F         140.2246  137.5321  157.2917 F       1  UNL1       -0.2024
     27 C         139.9753  138.5857  158.9822 C.3     1  UNL1        0.1580
@<TRIPOS>BOND
     1     1     2    1
     2     2     3    2
     3     3    15    1
     4    15    16   ar
     5    16    17   ar
     6    17    18   ar
     7    18    21    1
     8    21    22    1
     9    22    23    1
    10    23    24    1
    11    24    25    1
    12    24    26    1
    13    24    27    1
    14    18    19   ar
    15    19    20   ar
    16     3     4    1
    17     4     5    2
    18     5     6    1
    19     6     7    1
    20     7     8    1
    21     7     9    2
    22     9    10    1
    23    10    11    1
    24    10    12    2
    25    12    13    1
    26    13    14    2
    27    13     2    1
    28    20    15   ar
    29    12     5    1
    30    27    21    1
@<TRIPOS>MOLECULE
*****
 27 30 0 0 0
SMALL
GASTEIGER

@<TRIPOS>ATOM
      1 C         139.9114  145.2661  163.2716 C.3     1  UNL1        0.0360
      2 C         140.7089  144.7624  162.1053 C.2     1  UNL1        0.0348
      3 C         141.7610  143.7136  162.3132 C.2     1  UNL1        0.0800
      4 N         142.5586  143.2098  161.1470 N.2     1  UNL1       -0.2493
      5 C         142.3041  143.7548  159.7728 C.2     1  UNL1        0.0709
      6 C         143.1016  143.2510  158.6066 C.3     1  UNL1        0.1024
      7 C         142.8471  143.7960  157.2326 C.2     1  UNL1        0.1258
      8 F         143.6447  143.2922  156.0663 F       1  UNL1       -0.2084
      9 C         141.7950  144.8448  157.0247 C.2     1  UNL1        0.0553
     10 C         140.9975  145.3486  158.1909 C.2     1  UNL1        0.1462
     11 F         139.9454  146.3974  157.9830 F       1  UNL1       -0.2040
     12 C         141.2520  144.8036  159.5650 C.2     1  UNL1        0.0801
     13 C         140.4544  145.3074  160.7312 C.2     1  UNL1        0.1964
     14 O         139.4024  146.3562  160.5234 O.2     1  UNL1       -0.2867
     15 C         142.0155  143.1686  163.6874 C.ar    1  UNL1        0.0175
     16 C         143.2712  143.5379  164.4200 C.ar    1  UNL1        0.0028
     17 C         143.5256  142.9929  165.7941 C.ar    1  UNL1        0.0146
     18 C         142.5244  142.0786  166.4356 C.ar    1  UNL1        0.0480
     19 C         141.2687  141.7093  165.7030 C.ar    1  UNL1        0.0146
     20 C         141.0142  142.2543  164.3289 C.ar    1  UNL1        0.0028
     21 N         142.7789  141.5336  167.8098 N.pl3   1  UNL1       -0.3026
     22 C         143.3176  142.3046  168.9782 C.3     1  UNL1        0.0966
     23 C         143.4110  141.3695  170.1473 C.3     1  UNL1        0.0897
     24 C         142.9300  140.0205  169.7014 C.3     1  UNL1        0.2834
     25 F         143.2334  139.6195  171.1146 F       1  UNL1       -0.2024
     26 F         142.5124  138.5876  169.5509 F       1  UNL1       -0.2024
     27 C         142.5393  140.1219  168.2567 C.3     1  UNL1        0.1580
@<TRIPOS>BOND
     1     1     2    1
     2     2     3    2
     3     3    15    1
     4    15    16   ar
     5    16    17   ar
     6    17    18   ar
     7    18    21    1
     8    21    22    1
     9    22    23    1
    10    23    24    1
    11    24    25    1
    12    24    26    1
    13    24    27    1
    14    18    19   ar
    15    19    20   ar
    16     3     4    1
    17     4     5    2
    18     5     6    1
    19     6     7    1
    20     7     8    1
    21     7     9    2
    22     9    10    1
    23    10    11    1
    24    10    12    2
    25    12    13    1
    26    13    14    2
    27    13     2    1
    28    20    15   ar
    29    12     5    1
    30    27    21    1
@<TRIPOS>MOLECULE
*****
 27 30 0 0 0
SMALL
GASTEIGER

@<TRIPOS>ATOM
      1 C         138.5094  140.5171  164.8821 C.3     1  UNL1        0.0360
      2 C         139.7023  140.9904  165.6588 C.2     1  UNL1        0.0348
      3 C         140.6888  141.9245  165.0230 C.2     1  UNL1        0.0800
      4 N         141.8816  142.3978  165.7996 N.2     1  UNL1       -0.2493
      5 C         142.0880  141.9369  167.2121 C.2     1  UNL1        0.0709
      6 C         143.2808  142.4101  167.9887 C.3     1  UNL1        0.1024
      7 C         143.4871  141.9492  169.4011 C.2     1  UNL1        0.1258
      8 F         144.6800  142.4224  170.1778 F       1  UNL1       -0.2084
      9 C         142.5007  141.0150  170.0369 C.2     1  UNL1        0.0553
     10 C         141.3079  140.5418  169.2603 C.2     1  UNL1        0.1462
     11 F         140.3214  139.6076  169.8961 F       1  UNL1       -0.2040
     12 C         141.1015  141.0027  167.8479 C.2     1  UNL1        0.0801
     13 C         139.9086  140.5295  167.0712 C.2     1  UNL1        0.1964
     14 O         138.9222  139.5953  167.7070 O.2     1  UNL1       -0.2867
     15 C         140.4824  142.3855  163.6105 C.ar    1  UNL1        0.0175
     16 C         141.0956  141.6210  162.4750 C.ar    1  UNL1        0.0028
     17 C         140.8892  142.0820  161.0626 C.ar    1  UNL1        0.0146
     18 C         140.0696  143.3073  160.7857 C.ar    1  UNL1        0.0480
     19 C         139.4563  144.0717  161.9213 C.ar    1  UNL1        0.0146
     20 C         139.6627  143.6108  163.3337 C.ar    1  UNL1        0.0028
     21 N         139.8632  143.7682  159.3733 N.pl3   1  UNL1       -0.3026
     22 C         139.1708  142.9994  158.2872 C.3     1  UNL1        0.0966
     23 C         139.1926  143.8348  157.0416 C.3     1  UNL1        0.0897
     24 C         139.8985  145.1201  157.3579 C.3     1  UNL1        0.2834
     25 F         139.6194  145.4440  155.9201 F       1  UNL1       -0.2024
     26 F         140.5460  146.4730  157.3735 F       1  UNL1       -0.2024
     27 C         140.3129  145.0789  158.7989 C.3     1  UNL1        0.1580
@<TRIPOS>BOND
     1     1     2    1
     2     2     3    2
     3     3    15    1
     4    15    16   ar
     5    16    17   ar
     6    17    18   ar
     7    18    21    1
     8    21    22    1
     9    22    23    1
    10    23    24    1
    11    24    25    1
    12    24    26    1
    13    24    27    1
    14    18    19   ar
    15    19    20   ar
    16     3     4    1
    17     4     5    2
    18     5     6    1
    19     6     7    1
    20     7     8    1
    21     7     9    2
    22     9    10    1
    23    10    11    1
    24    10    12    2
    25    12    13    1
    26    13    14    2
    27    13     2    1
    28    20    15   ar
    29    12     5    1
    30    27    21    1
@<TRIPOS>MOLECULE
*****
 27 30 0 0 0
SMALL
GASTEIGER

@<TRIPOS>ATOM
      1 C         143.3564  139.8848  164.6012 C.3     1  UNL1        0.0360
      2 C         142.6179  140.6134  165.6847 C.2     1  UNL1        0.0348
      3 C         141.8978  141.8918  165.3726 C.2     1  UNL1        0.0800
      4 N         141.1594  142.6203  166.4561 N.2     1  UNL1       -0.2493
      5 C         141.1410  142.0706  167.8516 C.2     1  UNL1        0.0709
      6 C         140.4026  142.7992  168.9350 C.3     1  UNL1        0.1024
      7 C         140.3842  142.2494  170.3305 C.2     1  UNL1        0.1258
      8 F         139.6457  142.9780  171.4140 F       1  UNL1       -0.2084
      9 C         141.1043  140.9711  170.6426 C.2     1  UNL1        0.0553
     10 C         141.8427  140.2425  169.5591 C.2     1  UNL1        0.1462
     11 F         142.5628  138.9642  169.8712 F       1  UNL1       -0.2040
     12 C         141.8611  140.7923  168.1637 C.2     1  UNL1        0.0801
     13 C         142.5995  140.0637  167.0802 C.2     1  UNL1        0.1964
     14 O         143.3196  138.7853  167.3922 O.2     1  UNL1       -0.2867
     15 C         141.9162  142.4415  163.9771 C.ar    1  UNL1        0.0175
     16 C         142.9221  143.4869  163.5960 C.ar    1  UNL1        0.0028
     17 C         142.9405  144.0366  162.2005 C.ar    1  UNL1        0.0146
     18 C         141.9530  143.5409  161.1861 C.ar    1  UNL1        0.0480
     19 C         140.9471  142.4955  161.5672 C.ar    1  UNL1        0.0146
     20 C         140.9287  141.9458  162.9627 C.ar    1  UNL1        0.0028
     21 N         141.9714  144.0906  159.7905 N.pl3   1  UNL1       -0.3026
     22 C         142.8627  143.6328  158.6743 C.3     1  UNL1        0.0966
     23 C         142.5439  144.4539  157.4601 C.3     1  UNL1        0.0897
     24 C         141.4555  145.4191  157.8260 C.3     1  UNL1        0.2834
     25 F         141.5876  145.8649  156.3998 F       1  UNL1       -0.2024
     26 F         140.3948  146.4775  157.8936 F       1  UNL1       -0.2024
     27 C         141.1017  145.1946  159.2662 C.3     1  UNL1        0.1580
@<TRIPOS>BOND
     1     1     2    1
     2     2     3    2
     3     3    15    1
     4    15    16   ar
     5    16    17   ar
     6    17    18   ar
     7    18    21    1
     8    21    22    1
     9    22    23    1
    10    23    24    1
    11    24    25    1
    12    24    26    1
    13    24    27    1
    14    18    19   ar
    15    19    20   ar
    16     3     4    1
    17     4     5    2
    18     5     6    1
    19     6     7    1
    20     7     8    1
    21     7     9    2
    22     9    10    1
    23    10    11    1
    24    10    12    2
    25    12    13    1
    26    13    14    2
    27    13     2    1
    28    20    15   ar
    29    12     5    1
    30    27    21    1
@<TRIPOS>MOLECULE
*****
 27 30 0 0 0
SMALL
GASTEIGER

@<TRIPOS>ATOM
      1 C         144.1248  142.0312  165.1215 C.3     1  UNL1        0.0360
      2 C         142.9260  141.5262  165.8686 C.2     1  UNL1        0.0348
      3 C         141.9307  140.6409  165.1791 C.2     1  UNL1        0.0800
      4 N         140.7320  140.1359  165.9262 N.2     1  UNL1       -0.2493
      5 C         140.5286  140.5164  167.3628 C.2     1  UNL1        0.0709
      6 C         139.3300  140.0114  168.1099 C.3     1  UNL1        0.1024
      7 C         139.1266  140.3919  169.5465 C.2     1  UNL1        0.1258
      8 F         137.9279  139.8869  170.2937 F       1  UNL1       -0.2084
      9 C         140.1219  141.2772  170.2360 C.2     1  UNL1        0.0553
     10 C         141.3206  141.7822  169.4890 C.2     1  UNL1        0.1462
     11 F         142.3159  142.6676  170.1785 F       1  UNL1       -0.2040
     12 C         141.5240  141.4017  168.0524 C.2     1  UNL1        0.0801
     13 C         142.7227  141.9067  167.3052 C.2     1  UNL1        0.1964
     14 O         143.7180  142.7921  167.9947 O.2     1  UNL1       -0.2867
     15 C         142.1341  140.2604  163.7424 C.ar    1  UNL1        0.0175
     16 C         141.5253  141.0923  162.6528 C.ar    1  UNL1        0.0028
     17 C         141.7287  140.7119  161.2163 C.ar    1  UNL1        0.0146
     18 C         142.5410  139.4995  160.8692 C.ar    1  UNL1        0.0480
     19 C         143.1498  138.6676  161.9588 C.ar    1  UNL1        0.0146
     20 C         142.9464  139.0481  163.3954 C.ar    1  UNL1        0.0028
     21 N         142.7444  139.1191  159.4326 N.pl3   1  UNL1       -0.3026
     22 C         143.1639  140.0420  158.3270 C.3     1  UNL1        0.0966
     23 C         143.2428  139.2424  157.0604 C.3     1  UNL1        0.0897
     24 C         142.8720  137.8252  157.3832 C.3     1  UNL1        0.2834
     25 F         143.1131  137.5950  155.9207 F       1  UNL1       -0.2024
     26 F         142.5517  136.3599  157.4002 F       1  UNL1       -0.2024
     27 C         142.5640  137.7490  158.8492 C.3     1  UNL1        0.1580
@<TRIPOS>BOND
     1     1     2    1
     2     2     3    2
     3     3    15    1
     4    15    16   ar
     5    16    17   ar
     6    17    18   ar
     7    18    21    1
     8    21    22    1
     9    22    23    1
    10    23    24    1
    11    24    25    1
    12    24    26    1
    13    24    27    1
    14    18    19   ar
    15    19    20   ar
    16     3     4    1
    17     4     5    2
    18     5     6    1
    19     6     7    1
    20     7     8    1
    21     7     9    2
    22     9    10    1
    23    10    11    1
    24    10    12    2
    25    12    13    1
    26    13    14    2
    27    13     2    1
    28    20    15   ar
    29    12     5    1
    30    27    21    1
@<TRIPOS>MOLECULE
*****
 27 30 0 0 0
SMALL
GASTEIGER

@<TRIPOS>ATOM
      1 C         144.0051  144.7330  163.1874 C.3     1  UNL1        0.0360
      2 C         142.9644  143.8734  163.8416 C.2     1  UNL1        0.0348
      3 C         141.7050  143.5278  163.1036 C.2     1  UNL1        0.0800
      4 N         140.6643  142.6682  163.7578 N.2     1  UNL1       -0.2493
      5 C         140.8829  142.1542  165.1500 C.2     1  UNL1        0.0709
      6 C         139.8422  141.2946  165.8041 C.3     1  UNL1        0.1024
      7 C         140.0608  140.7806  167.1962 C.2     1  UNL1        0.1258
      8 F         139.0200  139.9210  167.8504 F       1  UNL1       -0.2084
      9 C         141.3202  141.1262  167.9342 C.2     1  UNL1        0.0553
     10 C         142.3609  141.9858  167.2800 C.2     1  UNL1        0.1462
     11 F         143.6202  142.3314  168.0180 F       1  UNL1       -0.2040
     12 C         142.1423  142.4998  165.8879 C.2     1  UNL1        0.0801
     13 C         143.1830  143.3594  165.2337 C.2     1  UNL1        0.1964
     14 O         144.4424  143.7050  165.9716 O.2     1  UNL1       -0.2867
     15 C         141.4864  144.0418  161.7115 C.ar    1  UNL1        0.0175
     16 C         140.6181  145.2434  161.4834 C.ar    1  UNL1        0.0028
     17 C         140.3995  145.7574  160.0913 C.ar    1  UNL1        0.0146
     18 C         141.0493  145.0697  158.9272 C.ar    1  UNL1        0.0480
     19 C         141.9177  143.8681  159.1553 C.ar    1  UNL1        0.0146
     20 C         142.1362  143.3542  160.5475 C.ar    1  UNL1        0.0028
     21 N         140.8307  145.5838  157.5351 N.pl3   1  UNL1       -0.3026
     22 C         141.6953  145.2967  156.3433 C.3     1  UNL1        0.0966
     23 C         141.1081  146.0106  155.1620 C.3     1  UNL1        0.0897
     24 C         139.8806  146.7388  155.6236 C.3     1  UNL1        0.2834
     25 F         139.7916  147.1739  154.1908 F       1  UNL1       -0.2024
     26 F         138.6346  147.5580  155.7856 F       1  UNL1       -0.2024
     27 C         139.7092  146.4750  157.0902 C.3     1  UNL1        0.1580
@<TRIPOS>BOND
     1     1     2    1
     2     2     3    2
     3     3    15    1
     4    15    16   ar
     5    16    17   ar
     6    17    18   ar
     7    18    21    1
     8    21    22    1
     9    22    23    1
    10    23    24    1
    11    24    25    1
    12    24    26    1
    13    24    27    1
    14    18    19   ar
    15    19    20   ar
    16     3     4    1
    17     4     5    2
    18     5     6    1
    19     6     7    1
    20     7     8    1
    21     7     9    2
    22     9    10    1
    23    10    11    1
    24    10    12    2
    25    12    13    1
    26    13    14    2
    27    13     2    1
    28    20    15   ar
    29    12     5    1
    30    27    21    1
@<TRIPOS>MOLECULE
*****
 27 30 0 0 0
SMALL
GASTEIGER

@<TRIPOS>ATOM
      1 C         138.3633  140.0014  165.2673 C.3     1  UNL1        0.0360
      2 C         139.5746  140.5664  165.9482 C.2     1  UNL1        0.0348
      3 C         140.5502  141.4009  165.1724 C.2     1  UNL1        0.0800
      4 N         141.7615  141.9659  165.8531 N.2     1  UNL1       -0.2493
      5 C         141.9973  141.6964  167.3098 C.2     1  UNL1        0.0709
      6 C         143.2085  142.2614  167.9906 C.3     1  UNL1        0.1024
      7 C         143.4443  141.9919  169.4472 C.2     1  UNL1        0.1258
      8 F         144.6556  142.5570  170.1281 F       1  UNL1       -0.2084
      9 C         142.4687  141.1575  170.2231 C.2     1  UNL1        0.0553
     10 C         141.2574  140.5924  169.5423 C.2     1  UNL1        0.1462
     11 F         140.2818  139.7580  170.3181 F       1  UNL1       -0.2040
     12 C         141.0217  140.8619  168.0857 C.2     1  UNL1        0.0801
     13 C         139.8104  140.2969  167.4048 C.2     1  UNL1        0.1964
     14 O         138.8348  139.4624  168.1806 O.2     1  UNL1       -0.2867
     15 C         140.3144  141.6704  163.7157 C.ar    1  UNL1        0.0175
     16 C         139.4561  142.8267  163.2962 C.ar    1  UNL1        0.0028
     17 C         139.2204  143.0962  161.8396 C.ar    1  UNL1        0.0146
     18 C         139.8430  142.2092  160.8024 C.ar    1  UNL1        0.0480
     19 C         140.7013  141.0529  161.2219 C.ar    1  UNL1        0.0146
     20 C         140.9370  140.7834  162.6785 C.ar    1  UNL1        0.0028
     21 N         139.6072  142.4787  159.3457 N.pl3   1  UNL1       -0.3026
     22 C         140.6577  142.8203  158.3310 C.3     1  UNL1        0.0966
     23 C         139.9794  143.0066  157.0062 C.3     1  UNL1        0.0897
     24 C         138.5095  142.7801  157.2022 C.3     1  UNL1        0.2834
     25 F         138.4288  143.0718  155.7330 F       1  UNL1       -0.2024
     26 F         137.0229  142.6146  157.0910 F       1  UNL1       -0.2024
     27 C         138.2796  142.4539  158.6481 C.3     1  UNL1        0.1580
@<TRIPOS>BOND
     1     1     2    1
     2     2     3    2
     3     3    15    1
     4    15    16   ar
     5    16    17   ar
     6    17    18   ar
     7    18    21    1
     8    21    22    1
     9    22    23    1
    10    23    24    1
    11    24    25    1
    12    24    26    1
    13    24    27    1
    14    18    19   ar
    15    19    20   ar
    16     3     4    1
    17     4     5    2
    18     5     6    1
    19     6     7    1
    20     7     8    1
    21     7     9    2
    22     9    10    1
    23    10    11    1
    24    10    12    2
    25    12    13    1
    26    13    14    2
    27    13     2    1
    28    20    15   ar
    29    12     5    1
    30    27    21    1
@<TRIPOS>MOLECULE
*****
 27 30 0 0 0
SMALL
GASTEIGER

@<TRIPOS>ATOM
      1 C         144.0718  144.7120  163.2162 C.3     1  UNL1        0.0360
      2 C         143.0241  143.8628  163.8731 C.2     1  UNL1        0.0348
      3 C         141.7616  143.5259  163.1366 C.2     1  UNL1        0.0800
      4 N         140.7140  142.6767  163.7934 N.2     1  UNL1       -0.2493
      5 C         140.9289  142.1645  165.1868 C.2     1  UNL1        0.0709
      6 C         139.8813  141.3154  165.8437 C.3     1  UNL1        0.1024
      7 C         140.0963  140.8033  167.2370 C.2     1  UNL1        0.1258
      8 F         139.0487  139.9541  167.8939 F       1  UNL1       -0.2084
      9 C         141.3588  141.1402  167.9735 C.2     1  UNL1        0.0553
     10 C         142.4064  141.9894  167.3167 C.2     1  UNL1        0.1462
     11 F         143.6689  142.3264  168.0532 F       1  UNL1       -0.2040
     12 C         142.1915  142.5015  165.9234 C.2     1  UNL1        0.0801
     13 C         143.2391  143.3507  165.2664 C.2     1  UNL1        0.1964
     14 O         144.5016  143.6877  166.0029 O.2     1  UNL1       -0.2867
     15 C         141.5467  144.0380  161.7432 C.ar    1  UNL1        0.0175
     16 C         142.2834  143.4167  160.5938 C.ar    1  UNL1        0.0028
     17 C         142.0684  143.9289  159.2004 C.ar    1  UNL1        0.0146
     18 C         141.1168  145.0624  158.9565 C.ar    1  UNL1        0.0480
     19 C         140.3801  145.6838  160.1059 C.ar    1  UNL1        0.0146
     20 C         140.5951  145.1716  161.4992 C.ar    1  UNL1        0.0028
     21 N         140.9019  145.5746  157.5631 N.pl3   1  UNL1       -0.3026
     22 C         139.8031  146.4955  157.1219 C.3     1  UNL1        0.0966
     23 C         139.9701  146.7459  155.6524 C.3     1  UNL1        0.0897
     24 C         141.1722  145.9798  155.1854 C.3     1  UNL1        0.2834
     25 F         140.8328  146.5693  153.8485 F       1  UNL1       -0.2024
     26 F         142.3033  145.3370  154.4389 F       1  UNL1       -0.2024
     27 C         141.7481  145.2559  156.3663 C.3     1  UNL1        0.1580
@<TRIPOS>BOND
     1     1     2    1
     2     2     3    2
     3     3    15    1
     4    15    16   ar
     5    16    17   ar
     6    17    18   ar
     7    18    21    1
     8    21    22    1
     9    22    23    1
    10    23    24    1
    11    24    25    1
    12    24    26    1
    13    24    27    1
    14    18    19   ar
    15    19    20   ar
    16     3     4    1
    17     4     5    2
    18     5     6    1
    19     6     7    1
    20     7     8    1
    21     7     9    2
    22     9    10    1
    23    10    11    1
    24    10    12    2
    25    12    13    1
    26    13    14    2
    27    13     2    1
    28    20    15   ar
    29    12     5    1
    30    27    21    1
