@<TRIPOS>MOLECULE
*****
 32 36 0 0 0
SMALL
GASTEIGER

@<TRIPOS>ATOM
      1 C         140.5299  138.5314  160.8016 C.ar    1  UNL1        0.0670
      2 C         141.9998  138.2640  160.6686 C.ar    1  UNL1        0.0191
      3 C         142.6028  138.0465  159.3125 C.ar    1  UNL1        0.0203
      4 C         141.7358  138.0964  158.0894 C.ar    1  UNL1        0.0795
      5 C         140.2659  138.3638  158.2225 C.ar    1  UNL1        0.0396
      6 C         139.6668  138.3544  156.8474 C.ar    1  UNL1        0.1216
      7 N         140.7664  138.0812  155.8644 N.ar    1  UNL1       -0.1677
      8 N         142.0452  137.9218  156.6320 N.ar    1  UNL1       -0.2494
      9 C         139.6629  138.5813  159.5786 C.ar    1  UNL1        0.0207
     10 O         140.0456  141.3192  161.7983 O.2     1  UNL1       -0.2665
     11 C         139.6847  140.1428  162.6561 C.ar    1  UNL1        0.2679
     12 C         139.0817  140.3603  164.0122 C.ar    1  UNL1        0.0980
     13 C         138.7208  139.1839  164.8701 C.ar    1  UNL1        0.1453
     14 C         138.9629  137.7899  164.3717 C.ar    1  UNL1        0.0561
     15 C         139.5660  137.5724  163.0156 C.ar    1  UNL1        0.0860
     16 N         139.9268  138.7489  162.1578 N.ar    1  UNL1       -0.2729
     17 O         138.1178  139.4014  166.2261 O.3     1  UNL1       -0.4704
     18 C         138.9714  139.2848  167.4540 C.3     1  UNL1        0.2320
     19 C         139.4950  140.5208  168.1236 C.ar    1  UNL1        0.0212
     20 C         139.2757  140.7279  169.5929 C.ar    1  UNL1       -0.0007
     21 C         139.7992  141.9638  170.2625 C.ar    1  UNL1       -0.0002
     22 C         140.5420  142.9927  169.4626 C.ar    1  UNL1       -0.0000
     23 C         140.7612  142.7857  167.9933 C.ar    1  UNL1       -0.0002
     24 C         140.2377  141.5497  167.3238 C.ar    1  UNL1       -0.0007
     25 C         143.3961  137.6376  156.0454 C.3     1  UNL1        0.1447
     26 C         143.5973  136.4328  155.1747 C.3     1  UNL1        0.0989
     27 N         143.1104  135.0890  155.6295 N.3     1  UNL1       -0.2667
     28 C         143.7965  134.3873  156.7640 C.3     1  UNL1        0.1047
     29 C         143.3096  133.0434  157.2189 C.3     1  UNL1        0.1595
     30 O         142.1367  132.4012  156.5393 O.3     1  UNL1       -0.3508
     31 C         141.4507  133.1029  155.4049 C.3     1  UNL1        0.1595
     32 C         141.9375  134.4468  154.9500 C.3     1  UNL1        0.1047
@<TRIPOS>BOND
     1    10    11    2
     2    11    12   ar
     3    12    13   ar
     4    13    17    1
     5    17    18    1
     6    18    19    1
     7    19    20   ar
     8    20    21   ar
     9    21    22   ar
    10    22    23   ar
    11    23    24   ar
    12    13    14   ar
    13    14    15   ar
    14    15    16   ar
    15    16     1    1
    16     1     2   ar
    17     2     3   ar
    18     3     4   ar
    19     4     5   ar
    20     5     6   ar
    21     6     7   ar
    22     7     8   ar
    23     8    25    1
    24    25    26    1
    25    26    27    1
    26    27    28    1
    27    28    29    1
    28    29    30    1
    29    30    31    1
    30    31    32    1
    31     5     9   ar
    32    16    11   ar
    33     9     1   ar
    34    24    19   ar
    35     8     4   ar
    36    32    27    1
@<TRIPOS>MOLECULE
*****
 32 36 0 0 0
SMALL
GASTEIGER

@<TRIPOS>ATOM
      1 C         140.1298  143.9831  161.1980 C.ar    1  UNL1        0.0670
      2 C         140.4398  145.3884  160.7750 C.ar    1  UNL1        0.0191
      3 C         140.3669  145.7687  159.3258 C.ar    1  UNL1        0.0203
      4 C         139.9841  144.7437  158.2998 C.ar    1  UNL1        0.0795
      5 C         139.6742  143.3384  158.7228 C.ar    1  UNL1        0.0396
      6 C         139.3282  142.5501  157.4945 C.ar    1  UNL1        0.1216
      7 N         139.4243  143.4683  156.3122 N.ar    1  UNL1       -0.1677
      8 N         139.8297  144.8240  156.8098 N.ar    1  UNL1       -0.2494
      9 C         139.7470  142.9581  160.1720 C.ar    1  UNL1        0.0207
     10 O         137.6533  144.0404  162.8902 O.2     1  UNL1       -0.2665
     11 C         138.9644  143.6314  163.4933 C.ar    1  UNL1        0.2679
     12 C         139.0372  143.2511  164.9424 C.ar    1  UNL1        0.0980
     13 C         140.3484  142.8421  165.5456 C.ar    1  UNL1        0.1453
     14 C         141.5866  142.8135  164.6995 C.ar    1  UNL1        0.0561
     15 C         141.5138  143.1938  163.2503 C.ar    1  UNL1        0.0860
     16 N         140.2027  143.6028  162.6472 N.ar    1  UNL1       -0.2729
     17 O         140.4212  142.4618  166.9947 O.3     1  UNL1       -0.4704
     18 C         140.7682  141.0556  167.3845 C.3     1  UNL1        0.2320
     19 C         140.1155  139.9005  166.6845 C.ar    1  UNL1        0.0212
     20 C         138.7138  139.5026  167.0409 C.ar    1  UNL1       -0.0007
     21 C         138.0612  138.3476  166.3410 C.ar    1  UNL1       -0.0002
     22 C         138.8103  137.5904  165.2847 C.ar    1  UNL1       -0.0000
     23 C         140.2119  137.9883  164.9284 C.ar    1  UNL1       -0.0002
     24 C         140.8645  139.1433  165.6283 C.ar    1  UNL1       -0.0007
     25 C         140.0432  146.0455  155.9659 C.3     1  UNL1        0.1447
     26 C         138.8946  146.9647  155.6728 C.3     1  UNL1        0.0989
     27 N         139.1556  148.3805  155.2518 N.3     1  UNL1       -0.2667
     28 C         138.4636  149.5113  155.9537 C.3     1  UNL1        0.1047
     29 C         138.7245  150.9271  155.5327 C.3     1  UNL1        0.1595
     30 O         139.6774  151.2122  154.4099 O.3     1  UNL1       -0.3508
     31 C         140.3693  150.0815  153.7080 C.3     1  UNL1        0.1595
     32 C         140.1084  148.6656  154.1289 C.3     1  UNL1        0.1047
@<TRIPOS>BOND
     1    10    11    2
     2    11    12   ar
     3    12    13   ar
     4    13    17    1
     5    17    18    1
     6    18    19    1
     7    19    20   ar
     8    20    21   ar
     9    21    22   ar
    10    22    23   ar
    11    23    24   ar
    12    13    14   ar
    13    14    15   ar
    14    15    16   ar
    15    16     1    1
    16     1     2   ar
    17     2     3   ar
    18     3     4   ar
    19     4     5   ar
    20     5     6   ar
    21     6     7   ar
    22     7     8   ar
    23     8    25    1
    24    25    26    1
    25    26    27    1
    26    27    28    1
    27    28    29    1
    28    29    30    1
    29    30    31    1
    30    31    32    1
    31     5     9   ar
    32    16    11   ar
    33     9     1   ar
    34    24    19   ar
    35     8     4   ar
    36    32    27    1
@<TRIPOS>MOLECULE
*****
 32 36 0 0 0
SMALL
GASTEIGER

@<TRIPOS>ATOM
      1 C         141.8888  143.6876  161.2751 C.ar    1  UNL1        0.0670
      2 C         141.0973  142.4995  161.7354 C.ar    1  UNL1        0.0191
      3 C         141.3477  141.9116  163.0924 C.ar    1  UNL1        0.0203
      4 C         142.3896  142.5118  163.9892 C.ar    1  UNL1        0.0795
      5 C         143.1811  143.6998  163.5289 C.ar    1  UNL1        0.0396
      6 C         144.1353  144.0737  164.6242 C.ar    1  UNL1        0.1216
      7 N         143.9335  143.1166  165.7615 N.ar    1  UNL1       -0.1677
      8 N         142.8546  142.1513  165.3690 N.ar    1  UNL1       -0.2494
      9 C         142.9307  144.2877  162.1718 C.ar    1  UNL1        0.0207
     10 O         139.6437  145.6370  160.8759 O.2     1  UNL1       -0.2665
     11 C         140.5158  145.2502  159.7184 C.ar    1  UNL1        0.2679
     12 C         140.2654  145.8382  158.3614 C.ar    1  UNL1        0.0980
     13 C         141.1376  145.4515  157.2038 C.ar    1  UNL1        0.1453
     14 C         142.2602  144.4768  157.4034 C.ar    1  UNL1        0.0561
     15 C         142.5105  143.8888  158.7605 C.ar    1  UNL1        0.0860
     16 N         141.6384  144.2755  159.9180 N.ar    1  UNL1       -0.2729
     17 O         140.8872  146.0394  155.8468 O.3     1  UNL1       -0.4704
     18 C         139.5283  146.5707  155.4988 C.3     1  UNL1        0.2320
     19 C         139.3362  148.0387  155.2573 C.ar    1  UNL1        0.0212
     20 C         139.8672  148.6683  154.0036 C.ar    1  UNL1       -0.0007
     21 C         139.6751  150.1362  153.7621 C.ar    1  UNL1       -0.0002
     22 C         138.9520  150.9745  154.7743 C.ar    1  UNL1       -0.0000
     23 C         138.4211  150.3449  156.0279 C.ar    1  UNL1       -0.0002
     24 C         138.6132  148.8770  156.2694 C.ar    1  UNL1       -0.0007
     25 C         142.3324  141.0235  166.2089 C.3     1  UNL1        0.1447
     26 C         140.9073  141.0345  166.6769 C.3     1  UNL1        0.0989
     27 N         140.5960  141.2525  168.1279 N.3     1  UNL1       -0.2667
     28 C         140.5503  142.6449  168.6841 C.3     1  UNL1        0.1047
     29 C         140.2390  142.8630  170.1352 C.3     1  UNL1        0.1595
     30 O         139.9735  141.6888  171.0300 O.3     1  UNL1       -0.3508
     31 C         140.0193  140.2965  170.4738 C.3     1  UNL1        0.1595
     32 C         140.3306  140.0783  169.0228 C.3     1  UNL1        0.1047
@<TRIPOS>BOND
     1    10    11    2
     2    11    12   ar
     3    12    13   ar
     4    13    17    1
     5    17    18    1
     6    18    19    1
     7    19    20   ar
     8    20    21   ar
     9    21    22   ar
    10    22    23   ar
    11    23    24   ar
    12    13    14   ar
    13    14    15   ar
    14    15    16   ar
    15    16     1    1
    16     1     2   ar
    17     2     3   ar
    18     3     4   ar
    19     4     5   ar
    20     5     6   ar
    21     6     7   ar
    22     7     8   ar
    23     8    25    1
    24    25    26    1
    25    26    27    1
    26    27    28    1
    27    28    29    1
    28    29    30    1
    29    30    31    1
    30    31    32    1
    31     5     9   ar
    32    16    11   ar
    33     9     1   ar
    34    24    19   ar
    35     8     4   ar
    36    32    27    1
@<TRIPOS>MOLECULE
*****
 32 36 0 0 0
SMALL
GASTEIGER

@<TRIPOS>ATOM
      1 C         140.8710  138.7275  159.1902 C.ar    1  UNL1        0.0670
      2 C         142.2814  138.2669  158.9703 C.ar    1  UNL1        0.0191
      3 C         142.6226  137.4461  157.7621 C.ar    1  UNL1        0.0203
      4 C         141.5533  137.0860  156.7737 C.ar    1  UNL1        0.0795
      5 C         140.1428  137.5466  156.9935 C.ar    1  UNL1        0.0396
      6 C         139.3072  137.0405  155.8553 C.ar    1  UNL1        0.1216
      7 N         140.2012  136.2671  154.9320 N.ar    1  UNL1       -0.1677
      8 N         141.5894  136.2952  155.4995 N.ar    1  UNL1       -0.2494
      9 C         139.8017  138.3674  158.2018 C.ar    1  UNL1        0.0207
     10 O         140.7485  137.4359  161.8951 O.2     1  UNL1       -0.2665
     11 C         140.4685  138.9025  161.7509 C.ar    1  UNL1        0.2679
     12 C         140.1273  139.7232  162.9592 C.ar    1  UNL1        0.0980
     13 C         139.8473  141.1898  162.8150 C.ar    1  UNL1        0.1453
     14 C         139.9085  141.8357  161.4626 C.ar    1  UNL1        0.0561
     15 C         140.2498  141.0148  160.2543 C.ar    1  UNL1        0.0860
     16 N         140.5297  139.5483  160.3985 N.ar    1  UNL1       -0.2729
     17 O         139.5061  142.0106  164.0233 O.3     1  UNL1       -0.4704
     18 C         140.1479  143.3512  164.2249 C.3     1  UNL1        0.2320
     19 C         141.6018  143.4405  164.5832 C.ar    1  UNL1        0.0212
     20 C         142.1926  142.4741  165.5665 C.ar    1  UNL1       -0.0007
     21 C         143.6465  142.5634  165.9247 C.ar    1  UNL1       -0.0002
     22 C         144.5095  143.6191  165.2995 C.ar    1  UNL1       -0.0000
     23 C         143.9187  144.5854  164.3162 C.ar    1  UNL1       -0.0002
     24 C         142.4648  144.4961  163.9580 C.ar    1  UNL1       -0.0007
     25 C         142.8010  135.6464  154.8985 C.3     1  UNL1        0.1447
     26 C         142.8494  134.1564  154.7329 C.3     1  UNL1        0.0989
     27 N         143.6119  133.3169  155.7146 N.3     1  UNL1       -0.2667
     28 C         143.9505  133.8676  157.0682 C.3     1  UNL1        0.1047
     29 C         144.7130  133.0282  158.0500 C.3     1  UNL1        0.1595
     30 O         145.1369  131.6382  157.6783 O.3     1  UNL1       -0.3508
     31 C         144.7983  131.0875  156.3247 C.3     1  UNL1        0.1595
     32 C         144.0358  131.9269  155.3429 C.3     1  UNL1        0.1047
@<TRIPOS>BOND
     1    10    11    2
     2    11    12   ar
     3    12    13   ar
     4    13    17    1
     5    17    18    1
     6    18    19    1
     7    19    20   ar
     8    20    21   ar
     9    21    22   ar
    10    22    23   ar
    11    23    24   ar
    12    13    14   ar
    13    14    15   ar
    14    15    16   ar
    15    16     1    1
    16     1     2   ar
    17     2     3   ar
    18     3     4   ar
    19     4     5   ar
    20     5     6   ar
    21     6     7   ar
    22     7     8   ar
    23     8    25    1
    24    25    26    1
    25    26    27    1
    26    27    28    1
    27    28    29    1
    28    29    30    1
    29    30    31    1
    30    31    32    1
    31     5     9   ar
    32    16    11   ar
    33     9     1   ar
    34    24    19   ar
    35     8     4   ar
    36    32    27    1
@<TRIPOS>MOLECULE
*****
 32 36 0 0 0
SMALL
GASTEIGER

@<TRIPOS>ATOM
      1 C         140.4001  138.9711  160.8368 C.ar    1  UNL1        0.0670
      2 C         139.6366  138.3612  159.6988 C.ar    1  UNL1        0.0191
      3 C         140.2512  138.2977  158.3320 C.ar    1  UNL1        0.0203
      4 C         141.6293  138.8439  158.1032 C.ar    1  UNL1        0.0795
      5 C         142.3929  139.4537  159.2412 C.ar    1  UNL1        0.0396
      6 C         143.7230  139.9072  158.7167 C.ar    1  UNL1        0.1216
      7 N         143.7815  139.5776  157.2545 N.ar    1  UNL1       -0.1677
      8 N         142.4876  138.9205  156.8753 N.ar    1  UNL1       -0.2494
      9 C         141.7783  139.5173  160.6080 C.ar    1  UNL1        0.0207
     10 O         141.0223  136.8465  162.8615 O.2     1  UNL1       -0.2665
     11 C         140.0966  137.9724  163.2160 C.ar    1  UNL1        0.2679
     12 C         139.4821  138.0360  164.5828 C.ar    1  UNL1        0.0980
     13 C         138.5564  139.1618  164.9374 C.ar    1  UNL1        0.1453
     14 C         138.2453  140.2241  163.9251 C.ar    1  UNL1        0.0561
     15 C         138.8599  140.1605  162.5582 C.ar    1  UNL1        0.0860
     16 N         139.7855  139.0347  162.2037 N.ar    1  UNL1       -0.2729
     17 O         137.9419  139.2254  166.3042 O.3     1  UNL1       -0.4704
     18 C         138.8008  139.5117  167.5001 C.3     1  UNL1        0.2320
     19 C         140.0326  140.3553  167.3542 C.ar    1  UNL1        0.0212
     20 C         141.3814  139.7712  167.6531 C.ar    1  UNL1       -0.0007
     21 C         142.6131  140.6147  167.5071 C.ar    1  UNL1       -0.0002
     22 C         142.4959  142.0425  167.0623 C.ar    1  UNL1       -0.0000
     23 C         141.1471  142.6266  166.7634 C.ar    1  UNL1       -0.0002
     24 C         139.9154  141.7830  166.9094 C.ar    1  UNL1       -0.0007
     25 C         142.1169  138.4266  155.5083 C.3     1  UNL1        0.1447
     26 C         142.8523  137.2668  154.9050 C.3     1  UNL1        0.0989
     27 N         142.6272  135.8803  155.4311 N.3     1  UNL1       -0.2667
     28 C         143.4300  135.3806  156.5955 C.3     1  UNL1        0.1047
     29 C         143.2050  133.9940  157.1217 C.3     1  UNL1        0.1595
     30 O         142.1772  133.1073  156.4835 O.3     1  UNL1       -0.3508
     31 C         141.3744  133.6070  155.3191 C.3     1  UNL1        0.1595
     32 C         141.5994  134.9936  154.7929 C.3     1  UNL1        0.1047
@<TRIPOS>BOND
     1    10    11    2
     2    11    12   ar
     3    12    13   ar
     4    13    17    1
     5    17    18    1
     6    18    19    1
     7    19    20   ar
     8    20    21   ar
     9    21    22   ar
    10    22    23   ar
    11    23    24   ar
    12    13    14   ar
    13    14    15   ar
    14    15    16   ar
    15    16     1    1
    16     1     2   ar
    17     2     3   ar
    18     3     4   ar
    19     4     5   ar
    20     5     6   ar
    21     6     7   ar
    22     7     8   ar
    23     8    25    1
    24    25    26    1
    25    26    27    1
    26    27    28    1
    27    28    29    1
    28    29    30    1
    29    30    31    1
    30    31    32    1
    31     5     9   ar
    32    16    11   ar
    33     9     1   ar
    34    24    19   ar
    35     8     4   ar
    36    32    27    1
@<TRIPOS>MOLECULE
*****
 32 36 0 0 0
SMALL
GASTEIGER

@<TRIPOS>ATOM
      1 C         140.1583  139.6909  159.0584 C.ar    1  UNL1        0.0670
      2 C         141.5513  139.2056  159.3307 C.ar    1  UNL1        0.0191
      3 C         142.1467  138.1210  158.4827 C.ar    1  UNL1        0.0203
      4 C         141.3492  137.5218  157.3625 C.ar    1  UNL1        0.0795
      5 C         139.9563  138.0071  157.0902 C.ar    1  UNL1        0.0396
      6 C         139.4150  137.2324  155.9254 C.ar    1  UNL1        0.1216
      7 N         140.4734  136.2684  155.4777 N.ar    1  UNL1       -0.1677
      8 N         141.6688  136.4472  156.3659 N.ar    1  UNL1       -0.2494
      9 C         139.3608  139.0916  157.9382 C.ar    1  UNL1        0.0207
     10 O         138.4924  138.9807  161.4501 O.2     1  UNL1       -0.2665
     11 C         138.7298  140.4204  161.1023 C.ar    1  UNL1        0.2679
     12 C         138.1343  141.5049  161.9503 C.ar    1  UNL1        0.0980
     13 C         138.3718  142.9446  161.6024 C.ar    1  UNL1        0.1453
     14 C         139.2047  143.2997  160.4066 C.ar    1  UNL1        0.0561
     15 C         139.8003  142.2151  159.5586 C.ar    1  UNL1        0.0860
     16 N         139.5628  140.7755  159.9064 N.ar    1  UNL1       -0.2729
     17 O         137.7762  144.0292  162.4504 O.3     1  UNL1       -0.4704
     18 C         138.3938  144.3706  163.7740 C.3     1  UNL1        0.2320
     19 C         139.8761  144.2431  163.9653 C.ar    1  UNL1        0.0212
     20 C         140.8053  145.2058  163.2871 C.ar    1  UNL1       -0.0007
     21 C         142.2876  145.0783  163.4783 C.ar    1  UNL1       -0.0002
     22 C         142.8407  143.9882  164.3477 C.ar    1  UNL1       -0.0000
     23 C         141.9115  143.0256  165.0259 C.ar    1  UNL1       -0.0002
     24 C         140.4292  143.1531  164.8346 C.ar    1  UNL1       -0.0007
     25 C         142.9576  135.6852  156.2736 C.3     1  UNL1        0.1447
     26 C         143.4312  134.8688  157.4395 C.3     1  UNL1        0.0989
     27 N         143.6090  133.3865  157.2943 N.3     1  UNL1       -0.2667
     28 C         142.6049  132.5828  156.5224 C.3     1  UNL1        0.1047
     29 C         142.7826  131.1005  156.3771 C.3     1  UNL1        0.1595
     30 O         143.9645  130.4219  157.0038 O.3     1  UNL1       -0.3508
     31 C         144.9686  131.2256  157.7756 C.3     1  UNL1        0.1595
     32 C         144.7909  132.7079  157.9209 C.3     1  UNL1        0.1047
@<TRIPOS>BOND
     1    10    11    2
     2    11    12   ar
     3    12    13   ar
     4    13    17    1
     5    17    18    1
     6    18    19    1
     7    19    20   ar
     8    20    21   ar
     9    21    22   ar
    10    22    23   ar
    11    23    24   ar
    12    13    14   ar
    13    14    15   ar
    14    15    16   ar
    15    16     1    1
    16     1     2   ar
    17     2     3   ar
    18     3     4   ar
    19     4     5   ar
    20     5     6   ar
    21     6     7   ar
    22     7     8   ar
    23     8    25    1
    24    25    26    1
    25    26    27    1
    26    27    28    1
    27    28    29    1
    28    29    30    1
    29    30    31    1
    30    31    32    1
    31     5     9   ar
    32    16    11   ar
    33     9     1   ar
    34    24    19   ar
    35     8     4   ar
    36    32    27    1
@<TRIPOS>MOLECULE
*****
 32 36 0 0 0
SMALL
GASTEIGER

@<TRIPOS>ATOM
      1 C         140.6664  138.8823  161.1504 C.ar    1  UNL1        0.0670
      2 C         141.0898  140.2365  161.6370 C.ar    1  UNL1        0.0191
      3 C         140.7982  140.6510  163.0487 C.ar    1  UNL1        0.0203
      4 C         140.0833  139.7114  163.9739 C.ar    1  UNL1        0.0795
      5 C         139.6599  138.3572  163.4873 C.ar    1  UNL1        0.0396
      6 C         138.9764  137.6504  164.6201 C.ar    1  UNL1        0.1216
      7 N         138.9774  138.5678  165.8069 N.ar    1  UNL1       -0.1677
      8 N         139.6615  139.8416  165.4075 N.ar    1  UNL1       -0.2494
      9 C         139.9514  137.9426  162.0755 C.ar    1  UNL1        0.0207
     10 O         143.4657  138.1635  160.3458 O.2     1  UNL1       -0.2665
     11 C         142.3575  138.1083  159.3363 C.ar    1  UNL1        0.2679
     12 C         142.6491  137.6937  157.9245 C.ar    1  UNL1        0.0980
     13 C         141.5410  137.6384  156.9150 C.ar    1  UNL1        0.1453
     14 C         140.1414  137.9979  157.3172 C.ar    1  UNL1        0.0561
     15 C         139.8498  138.4125  158.7291 C.ar    1  UNL1        0.0860
     16 N         140.9579  138.4677  159.7385 N.ar    1  UNL1       -0.2729
     17 O         141.8326  137.2239  155.5032 O.3     1  UNL1       -0.4704
     18 C         142.9632  136.2807  155.2169 C.3     1  UNL1        0.2320
     19 C         142.8776  134.8504  155.6607 C.ar    1  UNL1        0.0212
     20 C         143.7789  134.3475  156.7491 C.ar    1  UNL1       -0.0007
     21 C         143.6932  132.9173  157.1928 C.ar    1  UNL1       -0.0002
     22 C         142.7061  131.9899  156.5482 C.ar    1  UNL1       -0.0000
     23 C         141.8047  132.4927  155.4599 C.ar    1  UNL1       -0.0002
     24 C         141.8905  133.9230  155.0161 C.ar    1  UNL1       -0.0007
     25 C         139.8846  141.0359  166.2872 C.3     1  UNL1        0.1447
     26 C         141.0383  141.0564  167.2456 C.3     1  UNL1        0.0989
     27 N         140.8227  141.4733  168.6702 N.3     1  UNL1       -0.2667
     28 C         141.0602  140.4949  169.7821 C.3     1  UNL1        0.1047
     29 C         140.8446  140.9118  171.2067 C.3     1  UNL1        0.1595
     30 O         140.3916  142.3071  171.5195 O.3     1  UNL1       -0.3508
     31 C         140.1542  143.2855  170.4076 C.3     1  UNL1        0.1595
     32 C         140.3697  142.8687  168.9830 C.3     1  UNL1        0.1047
@<TRIPOS>BOND
     1    10    11    2
     2    11    12   ar
     3    12    13   ar
     4    13    17    1
     5    17    18    1
     6    18    19    1
     7    19    20   ar
     8    20    21   ar
     9    21    22   ar
    10    22    23   ar
    11    23    24   ar
    12    13    14   ar
    13    14    15   ar
    14    15    16   ar
    15    16     1    1
    16     1     2   ar
    17     2     3   ar
    18     3     4   ar
    19     4     5   ar
    20     5     6   ar
    21     6     7   ar
    22     7     8   ar
    23     8    25    1
    24    25    26    1
    25    26    27    1
    26    27    28    1
    27    28    29    1
    28    29    30    1
    29    30    31    1
    30    31    32    1
    31     5     9   ar
    32    16    11   ar
    33     9     1   ar
    34    24    19   ar
    35     8     4   ar
    36    32    27    1
@<TRIPOS>MOLECULE
*****
 32 36 0 0 0
SMALL
GASTEIGER

@<TRIPOS>ATOM
      1 C         141.7901  138.6195  160.3036 C.ar    1  UNL1        0.0670
      2 C         142.8933  137.7001  159.8705 C.ar    1  UNL1        0.0191
      3 C         142.8482  137.0614  158.5140 C.ar    1  UNL1        0.0203
      4 C         141.6999  137.3422  157.5907 C.ar    1  UNL1        0.0795
      5 C         140.5967  138.2616  158.0238 C.ar    1  UNL1        0.0396
      6 C         139.6005  138.3491  156.9058 C.ar    1  UNL1        0.1216
      7 N         140.0880  137.4838  155.7817 N.ar    1  UNL1       -0.1677
      8 N         141.3855  136.8614  156.2049 N.ar    1  UNL1       -0.2494
      9 C         140.6418  138.9003  159.3802 C.ar    1  UNL1        0.0207
     10 O         140.7922  137.1189  162.7020 O.2     1  UNL1       -0.2665
     11 C         141.3363  138.5080  162.8593 C.ar    1  UNL1        0.2679
     12 C         141.3813  139.1466  164.2158 C.ar    1  UNL1        0.0980
     13 C         141.9253  140.5357  164.3731 C.ar    1  UNL1        0.1453
     14 C         142.4243  141.2860  163.1739 C.ar    1  UNL1        0.0561
     15 C         142.3792  140.6472  161.8173 C.ar    1  UNL1        0.0860
     16 N         141.8352  139.2583  161.6601 N.ar    1  UNL1       -0.2729
     17 O         141.9704  141.1743  165.7295 O.3     1  UNL1       -0.4704
     18 C         140.7168  141.7271  166.3402 C.3     1  UNL1        0.2320
     19 C         139.7483  142.5000  165.4948 C.ar    1  UNL1        0.0212
     20 C         138.5627  141.8084  164.8900 C.ar    1  UNL1       -0.0007
     21 C         137.5943  142.5814  164.0446 C.ar    1  UNL1       -0.0002
     22 C         137.8115  144.0460  163.8041 C.ar    1  UNL1       -0.0000
     23 C         138.9972  144.7376  164.4089 C.ar    1  UNL1       -0.0002
     24 C         139.9656  143.9646  165.2543 C.ar    1  UNL1       -0.0007
     25 C         142.2218  135.9231  155.3863 C.3     1  UNL1        0.1447
     26 C         141.9741  134.4452  155.4530 C.3     1  UNL1        0.0989
     27 N         143.0398  133.5290  155.9771 N.3     1  UNL1       -0.2667
     28 C         143.6545  133.7851  157.3212 C.3     1  UNL1        0.1047
     29 C         144.7202  132.8689  157.8454 C.3     1  UNL1        0.1595
     30 O         145.1712  131.6966  157.0255 O.3     1  UNL1       -0.3508
     31 C         144.5565  131.4405  155.6814 C.3     1  UNL1        0.1595
     32 C         143.4908  132.3567  155.1572 C.3     1  UNL1        0.1047
@<TRIPOS>BOND
     1    10    11    2
     2    11    12   ar
     3    12    13   ar
     4    13    17    1
     5    17    18    1
     6    18    19    1
     7    19    20   ar
     8    20    21   ar
     9    21    22   ar
    10    22    23   ar
    11    23    24   ar
    12    13    14   ar
    13    14    15   ar
    14    15    16   ar
    15    16     1    1
    16     1     2   ar
    17     2     3   ar
    18     3     4   ar
    19     4     5   ar
    20     5     6   ar
    21     6     7   ar
    22     7     8   ar
    23     8    25    1
    24    25    26    1
    25    26    27    1
    26    27    28    1
    27    28    29    1
    28    29    30    1
    29    30    31    1
    30    31    32    1
    31     5     9   ar
    32    16    11   ar
    33     9     1   ar
    34    24    19   ar
    35     8     4   ar
    36    32    27    1
@<TRIPOS>MOLECULE
*****
 32 36 0 0 0
SMALL
GASTEIGER

@<TRIPOS>ATOM
      1 C         139.9287  143.0026  159.1460 C.ar    1  UNL1        0.0670
      2 C         139.1137  141.7598  159.3489 C.ar    1  UNL1        0.0191
      3 C         138.0724  141.3729  158.3410 C.ar    1  UNL1        0.0203
      4 C         137.8461  142.2288  157.1301 C.ar    1  UNL1        0.0795
      5 C         138.6611  143.4716  156.9272 C.ar    1  UNL1        0.0396
      6 C         138.2169  144.1132  155.6461 C.ar    1  UNL1        0.1216
      7 N         137.1274  143.2668  155.0573 N.ar    1  UNL1       -0.1677
      8 N         136.8982  142.1023  155.9744 N.ar    1  UNL1       -0.2494
      9 C         139.7024  143.8585  157.9351 C.ar    1  UNL1        0.0207
     10 O         139.2390  144.9057  161.3602 O.2     1  UNL1       -0.2665
     11 C         140.6252  144.3411  161.2611 C.ar    1  UNL1        0.2679
     12 C         141.6665  144.7281  162.2690 C.ar    1  UNL1        0.0980
     13 C         143.0527  144.1635  162.1699 C.ar    1  UNL1        0.1453
     14 C         143.3975  143.2120  161.0628 C.ar    1  UNL1        0.0561
     15 C         142.3562  142.8250  160.0548 C.ar    1  UNL1        0.0860
     16 N         140.9701  143.3896  160.1540 N.ar    1  UNL1       -0.2729
     17 O         144.0939  144.5505  163.1778 O.3     1  UNL1       -0.4704
     18 C         144.1037  143.9047  164.5316 C.3     1  UNL1        0.2320
     19 C         144.1328  142.4096  164.6493 C.ar    1  UNL1        0.0212
     20 C         143.0754  141.6989  165.4409 C.ar    1  UNL1       -0.0007
     21 C         143.1044  140.2038  165.5585 C.ar    1  UNL1       -0.0002
     22 C         144.1909  139.4194  164.8845 C.ar    1  UNL1       -0.0000
     23 C         145.2483  140.1301  164.0928 C.ar    1  UNL1       -0.0002
     24 C         145.2193  141.6252  163.9752 C.ar    1  UNL1       -0.0007
     25 C         135.8969  141.0039  155.7716 C.3     1  UNL1        0.1447
     26 C         134.5037  141.3326  155.3234 C.3     1  UNL1        0.0989
     27 N         133.3273  140.7021  156.0078 N.3     1  UNL1       -0.2667
     28 C         131.9341  141.1217  155.6431 C.3     1  UNL1        0.1047
     29 C         130.7576  140.4913  156.3275 C.3     1  UNL1        0.1595
     30 O         130.9743  139.4413  157.3766 O.3     1  UNL1       -0.3508
     31 C         132.3675  139.0217  157.7413 C.3     1  UNL1        0.1595
     32 C         133.5440  139.6521  157.0569 C.3     1  UNL1        0.1047
@<TRIPOS>BOND
     1    10    11    2
     2    11    12   ar
     3    12    13   ar
     4    13    17    1
     5    17    18    1
     6    18    19    1
     7    19    20   ar
     8    20    21   ar
     9    21    22   ar
    10    22    23   ar
    11    23    24   ar
    12    13    14   ar
    13    14    15   ar
    14    15    16   ar
    15    16     1    1
    16     1     2   ar
    17     2     3   ar
    18     3     4   ar
    19     4     5   ar
    20     5     6   ar
    21     6     7   ar
    22     7     8   ar
    23     8    25    1
    24    25    26    1
    25    26    27    1
    26    27    28    1
    27    28    29    1
    28    29    30    1
    29    30    31    1
    30    31    32    1
    31     5     9   ar
    32    16    11   ar
    33     9     1   ar
    34    24    19   ar
    35     8     4   ar
    36    32    27    1
