@<TRIPOS>MOLECULE
*****
 29 32 0 0 0
SMALL
GASTEIGER

@<TRIPOS>ATOM
      1 C         139.4223  141.5697  164.1296 C.ar    1  UNL1        0.0858
      2 C         139.2795  140.5552  163.0341 C.ar    1  UNL1        0.0399
      3 C         138.9054  140.9942  161.6494 C.ar    1  UNL1        0.1032
      4 N         138.7625  139.9796  160.5539 N.ar    1  UNL1       -0.2405
      5 C         138.3885  140.4186  159.1692 C.ar    1  UNL1        0.1195
      6 C         138.1573  141.8722  158.8801 C.ar    1  UNL1        0.1196
      7 N         138.3002  142.8868  159.9756 N.ar    1  UNL1       -0.2379
      8 C         138.6742  142.4478  161.3603 C.ar    1  UNL1        0.1302
      9 C         138.8171  143.4624  162.4559 C.ar    1  UNL1        0.1478
     10 N         139.1911  143.0233  163.8405 N.ar    1  UNL1       -0.2292
     11 C         140.5445  140.2528  168.2837 C.ar    1  UNL1        0.1318
     12 C         139.3227  139.6876  167.6222 C.ar    1  UNL1        0.0344
     13 C         138.9486  140.1266  166.2375 C.ar    1  UNL1        0.0059
     14 C         139.7964  141.1307  165.5144 C.ar    1  UNL1        0.0370
     15 C         141.0182  141.6959  166.1759 C.ar    1  UNL1        0.1018
     16 N         141.3923  141.2570  167.5606 N.ar    1  UNL1       -0.2291
     17 C         142.2531  139.1761  169.9183 C.3     1  UNL1        0.1136
     18 N         140.9186  139.8138  169.6685 N.pl3   1  UNL1       -0.2897
     19 C         139.9581  140.0125  170.8033 C.3     1  UNL1        0.1136
     20 N         138.5859  144.9160  162.1667 N.pl3   1  UNL1       -0.3148
     21 H         137.6688  145.2555  162.0531 H       1  UNL1        0.1483
     22 C         139.7520  145.8523  162.0507 C.3     1  UNL1        0.1195
     23 C         141.1458  145.3459  162.2763 C.3     1  UNL1        0.1504
     24 C         141.8498  144.5804  161.1955 C.3     1  UNL1        0.1003
     25 N         143.2436  144.0740  161.4211 N.3     1  UNL1       -0.2933
     26 C         143.9334  144.3332  162.7276 C.3     1  UNL1        0.1011
     27 C         143.2294  145.0988  163.8085 C.3     1  UNL1        0.1592
     28 O         141.8356  145.6051  163.5829 O.3     1  UNL1       -0.3516
     29 H         143.8278  144.4853  160.6931 H       1  UNL1        0.1234
@<TRIPOS>BOND
     1    17    18    1
     2    18    19    1
     3    18    11    1
     4    11    12   ar
     5    12    13   ar
     6    13    14   ar
     7    14     1    1
     8     1     2   ar
     9     2     3   ar
    10     3     4   ar
    11     4     5   ar
    12     5     6   ar
    13     6     7   ar
    14     7     8   ar
    15     8     9   ar
    16     9    20    1
    17    20    22    1
    18    23    22    1
    19    23    24    1
    20    24    25    1
    21    25    26    1
    22    26    27    1
    23    27    28    1
    24     9    10   ar
    25    14    15   ar
    26    15    16   ar
    27    16    11   ar
    28    10     1   ar
    29     8     3   ar
    30    28    23    1
    31    20    21    1
    32    25    29    1
@<TRIPOS>MOLECULE
*****
 29 32 0 0 0
SMALL
GASTEIGER

@<TRIPOS>ATOM
      1 C         142.7639  142.1393  164.3815 C.ar    1  UNL1        0.0858
      2 C         143.3218  141.3165  163.2582 C.ar    1  UNL1        0.0399
      3 C         143.3870  141.8858  161.8720 C.ar    1  UNL1        0.1032
      4 N         143.9448  141.0630  160.7487 N.ar    1  UNL1       -0.2405
      5 C         144.0100  141.6323  159.3625 C.ar    1  UNL1        0.1195
      6 C         143.5172  143.0244  159.0996 C.ar    1  UNL1        0.1196
      7 N         142.9593  143.8472  160.2228 N.ar    1  UNL1       -0.2379
      8 C         142.8942  143.2779  161.6090 C.ar    1  UNL1        0.1302
      9 C         142.3363  144.1007  162.7323 C.ar    1  UNL1        0.1478
     10 N         142.2712  143.5314  164.1185 N.ar    1  UNL1       -0.2292
     11 C         142.5685  140.4313  168.5402 C.ar    1  UNL1        0.1318
     12 C         143.0023  141.8521  168.3325 C.ar    1  UNL1        0.0344
     13 C         143.0675  142.4214  166.9463 C.ar    1  UNL1        0.0059
     14 C         142.6988  141.5700  165.7678 C.ar    1  UNL1        0.0370
     15 C         142.2650  140.1492  165.9754 C.ar    1  UNL1        0.1018
     16 N         142.1999  139.5798  167.3616 N.ar    1  UNL1       -0.2291
     17 C         142.1199  140.7400  171.0805 C.3     1  UNL1        0.1136
     18 N         142.5034  139.8620  169.9264 N.pl3   1  UNL1       -0.2897
     19 C         142.8217  138.4147  170.1585 C.3     1  UNL1        0.1136
     20 N         141.8435  145.4929  162.4694 N.pl3   1  UNL1       -0.3148
     21 H         142.4785  146.2450  162.4533 H       1  UNL1        0.1483
     22 C         140.3832  145.7390  162.2308 C.3     1  UNL1        0.1195
     23 C         139.3818  144.6650  162.5369 C.3     1  UNL1        0.1504
     24 C         138.8206  144.5354  163.9219 C.3     1  UNL1        0.1003
     25 N         137.8192  143.4614  164.2279 N.3     1  UNL1       -0.2933
     26 C         137.3789  142.5170  163.1489 C.3     1  UNL1        0.1011
     27 C         137.9401  142.6466  161.7639 C.3     1  UNL1        0.1592
     28 O         138.9415  143.7206  161.4578 O.3     1  UNL1       -0.3516
     29 H         136.9800  143.9300  164.5695 H       1  UNL1        0.1234
@<TRIPOS>BOND
     1    17    18    1
     2    18    19    1
     3    18    11    1
     4    11    12   ar
     5    12    13   ar
     6    13    14   ar
     7    14     1    1
     8     1     2   ar
     9     2     3   ar
    10     3     4   ar
    11     4     5   ar
    12     5     6   ar
    13     6     7   ar
    14     7     8   ar
    15     8     9   ar
    16     9    20    1
    17    20    22    1
    18    23    22    1
    19    23    24    1
    20    24    25    1
    21    25    26    1
    22    26    27    1
    23    27    28    1
    24     9    10   ar
    25    14    15   ar
    26    15    16   ar
    27    16    11   ar
    28    10     1   ar
    29     8     3   ar
    30    28    23    1
    31    20    21    1
    32    25    29    1
@<TRIPOS>MOLECULE
*****
 29 32 0 0 0
SMALL
GASTEIGER

@<TRIPOS>ATOM
      1 C         140.7464  142.9446  164.1140 C.ar    1  UNL1        0.0858
      2 C         141.5179  143.7929  163.1470 C.ar    1  UNL1        0.0399
      3 C         141.0191  143.9732  161.7438 C.ar    1  UNL1        0.1032
      4 N         141.7906  144.8215  160.7768 N.ar    1  UNL1       -0.2405
      5 C         141.2918  145.0017  159.3737 C.ar    1  UNL1        0.1195
      6 C         140.0216  144.3336  158.9376 C.ar    1  UNL1        0.1196
      7 N         139.2502  143.4852  159.9046 N.ar    1  UNL1       -0.2379
      8 C         139.7489  143.3050  161.3077 C.ar    1  UNL1        0.1302
      9 C         138.9775  142.4566  162.2748 C.ar    1  UNL1        0.1478
     10 N         139.4762  142.2764  163.6779 N.ar    1  UNL1       -0.2292
     11 C         142.2427  142.4038  168.3233 C.ar    1  UNL1        0.1318
     12 C         140.7885  142.6731  168.0731 C.ar    1  UNL1        0.0344
     13 C         140.2897  142.8533  166.6700 C.ar    1  UNL1        0.0059
     14 C         141.2452  142.7643  165.5172 C.ar    1  UNL1        0.0370
     15 C         142.6994  142.4950  165.7674 C.ar    1  UNL1        0.1018
     16 N         143.1982  142.3148  167.1705 N.ar    1  UNL1       -0.2291
     17 C         144.1893  142.4545  170.0434 C.3     1  UNL1        0.1136
     18 N         142.7415  142.2235  169.7265 N.pl3   1  UNL1       -0.2897
     19 C         141.7923  141.8123  170.8128 C.3     1  UNL1        0.1136
     20 N         137.7073  141.7885  161.8387 N.pl3   1  UNL1       -0.3148
     21 H         136.8514  142.2712  161.8990 H       1  UNL1        0.1483
     22 C         137.7411  140.3849  161.3108 C.3     1  UNL1        0.1195
     23 C         138.6176  139.3584  161.9651 C.3     1  UNL1        0.1504
     24 C         139.7171  138.7029  161.1833 C.3     1  UNL1        0.1003
     25 N         140.5935  137.6764  161.8376 N.3     1  UNL1       -0.2933
     26 C         140.3705  137.3055  163.2737 C.3     1  UNL1        0.1011
     27 C         139.2710  137.9610  164.0557 C.3     1  UNL1        0.1592
     28 O         138.3945  138.9875  163.4014 O.3     1  UNL1       -0.3516
     29 H         141.5516  138.0194  161.7674 H       1  UNL1        0.1234
@<TRIPOS>BOND
     1    17    18    1
     2    18    19    1
     3    18    11    1
     4    11    12   ar
     5    12    13   ar
     6    13    14   ar
     7    14     1    1
     8     1     2   ar
     9     2     3   ar
    10     3     4   ar
    11     4     5   ar
    12     5     6   ar
    13     6     7   ar
    14     7     8   ar
    15     8     9   ar
    16     9    20    1
    17    20    22    1
    18    23    22    1
    19    23    24    1
    20    24    25    1
    21    25    26    1
    22    26    27    1
    23    27    28    1
    24     9    10   ar
    25    14    15   ar
    26    15    16   ar
    27    16    11   ar
    28    10     1   ar
    29     8     3   ar
    30    28    23    1
    31    20    21    1
    32    25    29    1
@<TRIPOS>MOLECULE
*****
 29 32 0 0 0
SMALL
GASTEIGER

@<TRIPOS>ATOM
      1 C         141.1585  139.4795  165.0079 C.ar    1  UNL1        0.0858
      2 C         142.4570  139.5306  164.2587 C.ar    1  UNL1        0.0399
      3 C         142.5606  138.9151  162.8947 C.ar    1  UNL1        0.1032
      4 N         143.8591  138.9662  162.1455 N.ar    1  UNL1       -0.2405
      5 C         143.9627  138.3508  160.7815 C.ar    1  UNL1        0.1195
      6 C         142.7677  137.6843  160.1667 C.ar    1  UNL1        0.1196
      7 N         141.4693  137.6333  160.9158 N.ar    1  UNL1       -0.2379
      8 C         141.3657  138.2487  162.2798 C.ar    1  UNL1        0.1302
      9 C         140.0672  138.1977  163.0291 C.ar    1  UNL1        0.1478
     10 N         139.9636  138.8131  164.3930 N.ar    1  UNL1       -0.2292
     11 C         140.8478  141.3258  169.0999 C.ar    1  UNL1        0.1318
     12 C         139.6994  140.5372  168.5437 C.ar    1  UNL1        0.0344
     13 C         139.8030  139.9218  167.1798 C.ar    1  UNL1        0.0059
     14 C         141.0549  140.0950  166.3719 C.ar    1  UNL1        0.0370
     15 C         142.2033  140.8836  166.9281 C.ar    1  UNL1        0.1018
     16 N         142.0997  141.4990  168.2921 N.ar    1  UNL1       -0.2291
     17 C         139.6284  142.8946  170.7738 C.3     1  UNL1        0.1136
     18 N         140.7442  141.9412  170.4640 N.pl3   1  UNL1       -0.2897
     19 C         141.7563  141.6032  171.5181 C.3     1  UNL1        0.1136
     20 N         138.8722  137.5313  162.4142 N.pl3   1  UNL1       -0.3148
     21 H         138.7898  136.5505  162.4367 H       1  UNL1        0.1483
     22 C         137.8030  138.3591  161.7652 C.3     1  UNL1        0.1195
     23 C         137.8824  139.8563  161.8107 C.3     1  UNL1        0.1504
     24 C         138.4205  140.6149  160.6339 C.3     1  UNL1        0.1003
     25 N         138.4999  142.1121  160.6793 N.3     1  UNL1       -0.2933
     26 C         138.0414  142.8508  161.9016 C.3     1  UNL1        0.1011
     27 C         137.5033  142.0922  163.0786 C.3     1  UNL1        0.1592
     28 O         137.4239  140.5950  163.0331 O.3     1  UNL1       -0.3516
     29 H         137.9433  142.4604  159.8987 H       1  UNL1        0.1234
@<TRIPOS>BOND
     1    17    18    1
     2    18    19    1
     3    18    11    1
     4    11    12   ar
     5    12    13   ar
     6    13    14   ar
     7    14     1    1
     8     1     2   ar
     9     2     3   ar
    10     3     4   ar
    11     4     5   ar
    12     5     6   ar
    13     6     7   ar
    14     7     8   ar
    15     8     9   ar
    16     9    20    1
    17    20    22    1
    18    23    22    1
    19    23    24    1
    20    24    25    1
    21    25    26    1
    22    26    27    1
    23    27    28    1
    24     9    10   ar
    25    14    15   ar
    26    15    16   ar
    27    16    11   ar
    28    10     1   ar
    29     8     3   ar
    30    28    23    1
    31    20    21    1
    32    25    29    1
@<TRIPOS>MOLECULE
*****
 29 32 0 0 0
SMALL
GASTEIGER

@<TRIPOS>ATOM
      1 C         140.0797  140.0418  164.6248 C.ar    1  UNL1        0.0858
      2 C         139.0485  140.6108  163.6960 C.ar    1  UNL1        0.0399
      3 C         138.9993  140.1633  162.2651 C.ar    1  UNL1        0.1032
      4 N         137.9681  140.7323  161.3363 N.ar    1  UNL1       -0.2405
      5 C         137.9190  140.2847  159.9055 C.ar    1  UNL1        0.1195
      6 C         138.9011  139.2681  159.4035 C.ar    1  UNL1        0.1196
      7 N         139.9323  138.6991  160.3323 N.ar    1  UNL1       -0.2379
      8 C         139.9814  139.1467  161.7631 C.ar    1  UNL1        0.1302
      9 C         141.0127  138.5777  162.6920 C.ar    1  UNL1        0.1478
     10 N         141.0618  139.0252  164.1228 N.ar    1  UNL1       -0.2292
     11 C         140.2271  141.3844  168.9173 C.ar    1  UNL1        0.1318
     12 C         140.9150  142.1901  167.8555 C.ar    1  UNL1        0.0344
     13 C         140.8659  141.7426  166.4247 C.ar    1  UNL1        0.0059
     14 C         140.1288  140.4894  166.0557 C.ar    1  UNL1        0.0370
     15 C         139.4409  139.6836  167.1176 C.ar    1  UNL1        0.1018
     16 N         139.4900  140.1311  168.5484 N.ar    1  UNL1       -0.2291
     17 C         140.9248  140.9624  171.3842 C.3     1  UNL1        0.1136
     18 N         140.2762  141.8319  170.3482 N.pl3   1  UNL1       -0.2897
     19 C         139.6768  143.1490  170.7431 C.3     1  UNL1        0.1136
     20 N         141.9948  137.5611  162.1900 N.pl3   1  UNL1       -0.3148
     21 H         141.7873  136.6011  162.2573 H       1  UNL1        0.1483
     22 C         143.2931  138.0072  161.5856 C.3     1  UNL1        0.1195
     23 C         144.0410  139.1621  162.1831 C.3     1  UNL1        0.1504
     24 C         144.3115  140.3867  161.3602 C.3     1  UNL1        0.1003
     25 N         145.0593  141.5416  161.9576 N.3     1  UNL1       -0.2933
     26 C         145.5366  141.4720  163.3779 C.3     1  UNL1        0.1011
     27 C         145.2660  140.2473  164.2009 C.3     1  UNL1        0.1592
     28 O         144.5182  139.0924  163.6035 O.3     1  UNL1       -0.3516
     29 H         144.4466  142.3545  161.8924 H       1  UNL1        0.1234
@<TRIPOS>BOND
     1    17    18    1
     2    18    19    1
     3    18    11    1
     4    11    12   ar
     5    12    13   ar
     6    13    14   ar
     7    14     1    1
     8     1     2   ar
     9     2     3   ar
    10     3     4   ar
    11     4     5   ar
    12     5     6   ar
    13     6     7   ar
    14     7     8   ar
    15     8     9   ar
    16     9    20    1
    17    20    22    1
    18    23    22    1
    19    23    24    1
    20    24    25    1
    21    25    26    1
    22    26    27    1
    23    27    28    1
    24     9    10   ar
    25    14    15   ar
    26    15    16   ar
    27    16    11   ar
    28    10     1   ar
    29     8     3   ar
    30    28    23    1
    31    20    21    1
    32    25    29    1
@<TRIPOS>MOLECULE
*****
 29 32 0 0 0
SMALL
GASTEIGER

@<TRIPOS>ATOM
      1 C         142.7626  141.8709  163.8742 C.ar    1  UNL1        0.0858
      2 C         142.4978  142.9277  162.8431 C.ar    1  UNL1        0.0399
      3 C         142.9086  142.7045  161.4178 C.ar    1  UNL1        0.1032
      4 N         142.6437  143.7612  160.3867 N.ar    1  UNL1       -0.2405
      5 C         143.0545  143.5381  158.9615 C.ar    1  UNL1        0.1195
      6 C         143.7301  142.2582  158.5673 C.ar    1  UNL1        0.1196
      7 N         143.9949  141.2014  159.5983 N.ar    1  UNL1       -0.2379
      8 C         143.5842  141.4246  161.0236 C.ar    1  UNL1        0.1302
      9 C         143.8490  140.3678  162.0547 C.ar    1  UNL1        0.1478
     10 N         143.4382  140.5910  163.4800 N.ar    1  UNL1       -0.2292
     11 C         141.5302  142.5403  168.1500 C.ar    1  UNL1        0.1318
     12 C         142.9673  142.2675  167.8176 C.ar    1  UNL1        0.0344
     13 C         143.3781  142.0443  166.3924 C.ar    1  UNL1        0.0059
     14 C         142.3518  142.0941  165.2995 C.ar    1  UNL1        0.0370
     15 C         140.9148  142.3669  165.6320 C.ar    1  UNL1        0.1018
     16 N         140.5040  142.5901  167.0572 N.ar    1  UNL1       -0.2291
     17 C         140.4226  144.0333  169.9651 C.3     1  UNL1        0.1136
     18 N         141.1195  142.7635  169.5754 N.pl3   1  UNL1       -0.2897
     19 C         141.4056  141.7168  170.6110 C.3     1  UNL1        0.1136
     20 N         144.5246  139.0879  161.6605 N.pl3   1  UNL1       -0.3148
     21 H         145.5072  139.0270  161.6692 H       1  UNL1        0.1483
     22 C         143.7032  137.9009  161.2531 C.3     1  UNL1        0.1195
     23 C         142.2087  137.9460  161.3734 C.3     1  UNL1        0.1504
     24 C         141.3749  138.3805  160.2047 C.3     1  UNL1        0.1003
     25 N         139.8805  138.4256  160.3250 N.3     1  UNL1       -0.2933
     26 C         139.2197  138.0363  161.6141 C.3     1  UNL1        0.1011
     27 C         140.0535  137.6018  162.7830 C.3     1  UNL1        0.1592
     28 O         141.5480  137.5566  162.6626 O.3     1  UNL1       -0.3516
     29 H         139.5082  137.8067  159.6047 H       1  UNL1        0.1234
@<TRIPOS>BOND
     1    17    18    1
     2    18    19    1
     3    18    11    1
     4    11    12   ar
     5    12    13   ar
     6    13    14   ar
     7    14     1    1
     8     1     2   ar
     9     2     3   ar
    10     3     4   ar
    11     4     5   ar
    12     5     6   ar
    13     6     7   ar
    14     7     8   ar
    15     8     9   ar
    16     9    20    1
    17    20    22    1
    18    23    22    1
    19    23    24    1
    20    24    25    1
    21    25    26    1
    22    26    27    1
    23    27    28    1
    24     9    10   ar
    25    14    15   ar
    26    15    16   ar
    27    16    11   ar
    28    10     1   ar
    29     8     3   ar
    30    28    23    1
    31    20    21    1
    32    25    29    1
@<TRIPOS>MOLECULE
*****
 29 32 0 0 0
SMALL
GASTEIGER

@<TRIPOS>ATOM
      1 C         139.6335  141.9040  164.4829 C.ar    1  UNL1        0.0858
      2 C         139.5041  140.7931  163.4834 C.ar    1  UNL1        0.0399
      3 C         139.0429  141.0903  162.0873 C.ar    1  UNL1        0.1032
      4 N         138.9136  139.9794  161.0877 N.ar    1  UNL1       -0.2405
      5 C         138.4524  140.2766  159.6917 C.ar    1  UNL1        0.1195
      6 C         138.1206  141.6847  159.2952 C.ar    1  UNL1        0.1196
      7 N         138.2500  142.7956  160.2948 N.ar    1  UNL1       -0.2379
      8 C         138.7111  142.4984  161.6908 C.ar    1  UNL1        0.1302
      9 C         138.8405  143.6093  162.6904 C.ar    1  UNL1        0.1478
     10 N         139.3017  143.3121  164.0865 N.ar    1  UNL1       -0.2292
     11 C         141.0169  141.0125  168.6712 C.ar    1  UNL1        0.1318
     12 C         141.4463  142.2797  167.9933 C.ar    1  UNL1        0.0344
     13 C         140.9852  142.5769  166.5972 C.ar    1  UNL1        0.0059
     14 C         140.0946  141.6069  165.8791 C.ar    1  UNL1        0.0370
     15 C         139.6652  140.3396  166.5570 C.ar    1  UNL1        0.1018
     16 N         140.1263  140.0424  167.9530 N.ar    1  UNL1       -0.2291
     17 C         142.5669  139.7101  170.2995 C.3     1  UNL1        0.1136
     18 N         141.4780  140.7153  170.0673 N.pl3   1  UNL1       -0.2897
     19 C         140.8503  141.4233  171.2312 C.3     1  UNL1        0.1136
     20 N         138.5088  145.0174  162.2939 N.pl3   1  UNL1       -0.3148
     21 H         137.5838  145.3456  162.3712 H       1  UNL1        0.1483
     22 C         139.5863  145.9255  161.7798 C.3     1  UNL1        0.1195
     23 C         140.3678  145.5450  160.5574 C.3     1  UNL1        0.1504
     24 C         141.6347  144.7535  160.6934 C.3     1  UNL1        0.1003
     25 N         142.4162  144.3730  159.4709 N.3     1  UNL1       -0.2933
     26 C         141.9308  144.7839  158.1124 C.3     1  UNL1        0.1011
     27 C         140.6638  145.5753  157.9764 C.3     1  UNL1        0.1592
     28 O         139.8823  145.9559  159.1988 O.3     1  UNL1       -0.3516
     29 H         142.4779  143.3549  159.4660 H       1  UNL1        0.1234
@<TRIPOS>BOND
     1    17    18    1
     2    18    19    1
     3    18    11    1
     4    11    12   ar
     5    12    13   ar
     6    13    14   ar
     7    14     1    1
     8     1     2   ar
     9     2     3   ar
    10     3     4   ar
    11     4     5   ar
    12     5     6   ar
    13     6     7   ar
    14     7     8   ar
    15     8     9   ar
    16     9    20    1
    17    20    22    1
    18    23    22    1
    19    23    24    1
    20    24    25    1
    21    25    26    1
    22    26    27    1
    23    27    28    1
    24     9    10   ar
    25    14    15   ar
    26    15    16   ar
    27    16    11   ar
    28    10     1   ar
    29     8     3   ar
    30    28    23    1
    31    20    21    1
    32    25    29    1
@<TRIPOS>MOLECULE
*****
 29 32 0 0 0
SMALL
GASTEIGER

@<TRIPOS>ATOM
      1 C         140.1609  143.9256  159.7645 C.ar    1  UNL1        0.0858
      2 C         141.6173  143.5836  159.8731 C.ar    1  UNL1        0.0399
      3 C         142.3629  143.8723  161.1423 C.ar    1  UNL1        0.1032
      4 N         143.8193  143.5303  161.2509 N.ar    1  UNL1       -0.2405
      5 C         144.5649  143.8190  162.5200 C.ar    1  UNL1        0.1195
      6 C         143.8540  144.4497  163.6806 C.ar    1  UNL1        0.1196
      7 N         142.3976  144.7917  163.5720 N.ar    1  UNL1       -0.2379
      8 C         141.6521  144.5030  162.3028 C.ar    1  UNL1        0.1302
      9 C         140.1956  144.8450  162.1942 C.ar    1  UNL1        0.1478
     10 N         139.4500  144.5563  160.9250 N.ar    1  UNL1       -0.2292
     11 C         137.9241  143.0597  155.9570 C.ar    1  UNL1        0.1318
     12 C         137.6030  142.2940  157.2062 C.ar    1  UNL1        0.0344
     13 C         138.3486  142.5826  158.4754 C.ar    1  UNL1        0.0059
     14 C         139.4153  143.6370  158.4953 C.ar    1  UNL1        0.0370
     15 C         139.7364  144.4027  157.2461 C.ar    1  UNL1        0.1018
     16 N         138.9908  144.1140  155.9769 N.ar    1  UNL1       -0.2291
     17 C         136.8025  143.8937  153.7669 C.3     1  UNL1        0.1136
     18 N         137.1785  142.7710  154.6878 N.pl3   1  UNL1       -0.2897
     19 C         136.8089  141.3596  154.3396 C.3     1  UNL1        0.1136
     20 N         139.4847  145.4757  163.3547 N.pl3   1  UNL1       -0.3148
     21 H         139.4112  146.4557  163.4134 H       1  UNL1        0.1483
     22 C         138.8858  144.6133  164.4259 C.3     1  UNL1        0.1195
     23 C         138.5613  143.1773  164.1386 C.3     1  UNL1        0.1504
     24 C         137.2975  142.8249  163.4116 C.3     1  UNL1        0.1003
     25 N         136.9731  141.3888  163.1243 N.3     1  UNL1       -0.2933
     26 C         137.9124  140.3052  163.5640 C.3     1  UNL1        0.1011
     27 C         139.1763  140.6576  164.2910 C.3     1  UNL1        0.1592
     28 O         139.5008  142.0936  164.5783 O.3     1  UNL1       -0.3516
     29 H         136.8798  141.3049  162.1120 H       1  UNL1        0.1234
@<TRIPOS>BOND
     1    17    18    1
     2    18    19    1
     3    18    11    1
     4    11    12   ar
     5    12    13   ar
     6    13    14   ar
     7    14     1    1
     8     1     2   ar
     9     2     3   ar
    10     3     4   ar
    11     4     5   ar
    12     5     6   ar
    13     6     7   ar
    14     7     8   ar
    15     8     9   ar
    16     9    20    1
    17    20    22    1
    18    23    22    1
    19    23    24    1
    20    24    25    1
    21    25    26    1
    22    26    27    1
    23    27    28    1
    24     9    10   ar
    25    14    15   ar
    26    15    16   ar
    27    16    11   ar
    28    10     1   ar
    29     8     3   ar
    30    28    23    1
    31    20    21    1
    32    25    29    1
@<TRIPOS>MOLECULE
*****
 29 32 0 0 0
SMALL
GASTEIGER

@<TRIPOS>ATOM
      1 C         141.9882  143.0709  164.3862 C.ar    1  UNL1        0.0858
      2 C         140.9863  144.0372  163.8273 C.ar    1  UNL1        0.0399
      3 C         141.0678  144.4539  162.3886 C.ar    1  UNL1        0.1032
      4 N         140.0659  145.4202  161.8297 N.ar    1  UNL1       -0.2405
      5 C         140.1475  145.8369  160.3911 C.ar    1  UNL1        0.1195
      6 C         141.2309  145.2872  159.5114 C.ar    1  UNL1        0.1196
      7 N         142.2328  144.3209  160.0702 N.ar    1  UNL1       -0.2379
      8 C         142.1513  143.9043  161.5089 C.ar    1  UNL1        0.1302
      9 C         143.1532  142.9379  162.0678 C.ar    1  UNL1        0.1478
     10 N         143.0717  142.5213  163.5064 N.ar    1  UNL1       -0.2292
     11 C         141.7437  141.8208  168.7021 C.ar    1  UNL1        0.1318
     12 C         140.5269  142.3540  168.0057 C.ar    1  UNL1        0.0344
     13 C         140.6084  142.7707  166.5670 C.ar    1  UNL1        0.0059
     14 C         141.9067  142.6542  165.8249 C.ar    1  UNL1        0.0370
     15 C         143.1235  142.1210  166.5214 C.ar    1  UNL1        0.1018
     16 N         143.0420  141.7043  167.9600 N.ar    1  UNL1       -0.2291
     17 C         142.6211  140.3856  170.6822 C.3     1  UNL1        0.1136
     18 N         141.6622  141.4041  170.1408 N.pl3   1  UNL1       -0.2897
     19 C         140.6217  142.0060  171.0382 C.3     1  UNL1        0.1136
     20 N         144.2367  142.3882  161.1881 N.pl3   1  UNL1       -0.3148
     21 H         145.1283  142.8057  161.1861 H       1  UNL1        0.1483
     22 C         143.9617  141.2026  160.3113 C.3     1  UNL1        0.1195
     23 C         143.1715  140.0438  160.8431 C.3     1  UNL1        0.1504
     24 C         143.8805  138.8363  161.3808 C.3     1  UNL1        0.1003
     25 N         143.0904  137.6774  161.9125 N.3     1  UNL1       -0.2933
     26 C         141.5912  137.7262  161.9067 C.3     1  UNL1        0.1011
     27 C         140.8821  138.9338  161.3690 C.3     1  UNL1        0.1592
     28 O         141.6723  140.0926  160.8372 O.3     1  UNL1       -0.3516
     29 H         143.3769  137.5461  162.8826 H       1  UNL1        0.1234
@<TRIPOS>BOND
     1    17    18    1
     2    18    19    1
     3    18    11    1
     4    11    12   ar
     5    12    13   ar
     6    13    14   ar
     7    14     1    1
     8     1     2   ar
     9     2     3   ar
    10     3     4   ar
    11     4     5   ar
    12     5     6   ar
    13     6     7   ar
    14     7     8   ar
    15     8     9   ar
    16     9    20    1
    17    20    22    1
    18    23    22    1
    19    23    24    1
    20    24    25    1
    21    25    26    1
    22    26    27    1
    23    27    28    1
    24     9    10   ar
    25    14    15   ar
    26    15    16   ar
    27    16    11   ar
    28    10     1   ar
    29     8     3   ar
    30    28    23    1
    31    20    21    1
    32    25    29    1
