@<TRIPOS>MOLECULE
*****
 30 32 0 0 0
SMALL
GASTEIGER

@<TRIPOS>ATOM
      1 C         141.0986  138.4307  162.8785 C.ar    1  UNL1        0.2209
      2 N         141.5370  137.6107  161.7014 N.ar    1  UNL1       -0.2096
      3 C         142.2623  138.2626  160.5617 C.ar    1  UNL1        0.1330
      4 C         142.5492  139.7345  160.5991 C.ar    1  UNL1        0.1783
      5 F         143.2745  140.3864  159.4594 F       1  UNL1       -0.2009
      6 C         142.1107  140.5544  161.7761 C.ar    1  UNL1        0.1303
      7 N         141.3854  139.9025  162.9158 N.ar    1  UNL1       -0.2097
      8 C         142.3976  142.0263  161.8135 C.ar    1  UNL1        0.1003
      9 C         141.8623  143.0533  160.8603 C.ar    1  UNL1        0.1189
     10 N         142.4040  144.3913  161.2683 N.ar    1  UNL1       -0.2293
     11 C         143.2741  144.1911  162.4737 C.ar    1  UNL1        0.1208
     12 C         144.0175  145.2641  163.2124 C.3     1  UNL1        0.0718
     13 N         143.2701  142.7295  162.8106 N.ar    1  UNL1       -0.3155
     14 C         144.0089  142.0842  163.9454 C.3     1  UNL1        0.0868
     15 C         143.3539  141.9527  165.2885 C.3     1  UNL1        0.0245
     16 C         145.4027  141.5704  163.7373 C.3     1  UNL1        0.0245
     17 N         140.3732  137.7788  164.0182 N.pl3   1  UNL1       -0.2825
     18 H         139.9889  136.8792  163.9069 H       1  UNL1        0.1551
     19 C         142.5332  139.8733  168.2547 C.3     1  UNL1        0.0312
     20 C         141.3135  139.5447  167.4457 C.ar    1  UNL1       -0.0162
     21 C         141.4532  138.8261  166.1365 C.ar    1  UNL1        0.0106
     22 C         140.2336  138.4974  165.3275 C.ar    1  UNL1        0.0501
     23 C         138.8743  138.8874  165.8276 C.ar    1  UNL1        0.0148
     24 C         138.7346  139.6060  167.1368 C.ar    1  UNL1        0.0055
     25 C         139.9543  139.9347  167.9458 C.ar    1  UNL1        0.0497
     26 C         139.8146  140.6533  169.2551 C.2     1  UNL1        0.2488
     27 O         139.4379  139.8926  170.4918 O.2     1  UNL1       -0.2699
     28 N         140.0516  142.1327  169.3277 N.am    1  UNL1       -0.2726
     29 C         139.9119  142.8513  170.6369 C.3     1  UNL1        0.1152
     30 C         140.4283  142.8934  168.0910 C.3     1  UNL1        0.1152
@<TRIPOS>BOND
     1    19    20    1
     2    20    21   ar
     3    21    22   ar
     4    22    17    1
     5    17     1    1
     6     1     2   ar
     7     2     3   ar
     8     3     4   ar
     9     4     5    1
    10     4     6   ar
    11     6     8    1
    12     8     9   ar
    13     9    10   ar
    14    10    11   ar
    15    11    12    1
    16    11    13   ar
    17    13    14    1
    18    14    15    1
    19    14    16    1
    20     6     7   ar
    21    22    23   ar
    22    23    24   ar
    23    24    25   ar
    24    25    26    1
    25    26    27    2
    26    26    28   am
    27    28    29    1
    28    28    30    1
    29    25    20   ar
    30     7     1   ar
    31    13     8   ar
    32    17    18    1
@<TRIPOS>MOLECULE
*****
 30 32 0 0 0
SMALL
GASTEIGER

@<TRIPOS>ATOM
      1 C         142.5016  139.2588  163.4057 C.ar    1  UNL1        0.2209
      2 N         143.7650  138.9725  162.6495 N.ar    1  UNL1       -0.2096
      3 C         144.1783  139.8628  161.5152 C.ar    1  UNL1        0.1330
      4 C         143.3281  141.0394  161.1371 C.ar    1  UNL1        0.1783
      5 F         143.7414  141.9296  160.0028 F       1  UNL1       -0.2009
      6 C         142.0647  141.3256  161.8933 C.ar    1  UNL1        0.1303
      7 N         141.6515  140.4354  163.0276 N.ar    1  UNL1       -0.2097
      8 C         141.2145  142.5022  161.5152 C.ar    1  UNL1        0.1003
      9 C         140.3714  142.6201  160.2801 C.ar    1  UNL1        0.1189
     10 N         139.6940  143.9582  160.3074 N.ar    1  UNL1       -0.2293
     11 C         140.1184  144.6672  161.5593 C.ar    1  UNL1        0.1208
     12 C         139.6801  146.0357  161.9892 C.3     1  UNL1        0.0718
     13 N         141.0582  143.7673  162.3057 N.ar    1  UNL1       -0.3155
     14 C         141.7245  144.0780  163.6131 C.3     1  UNL1        0.0868
     15 C         142.9544  144.9363  163.6428 C.3     1  UNL1        0.0245
     16 C         141.1611  143.5305  164.8909 C.3     1  UNL1        0.0245
     17 N         142.0883  138.3686  164.5400 N.pl3   1  UNL1       -0.2825
     18 H         142.1795  137.3918  164.4576 H       1  UNL1        0.1551
     19 C         142.7993  140.0989  169.3877 C.3     1  UNL1        0.0312
     20 C         141.8916  139.8317  168.2238 C.ar    1  UNL1       -0.0162
     21 C         142.4438  139.2337  166.9639 C.ar    1  UNL1        0.0106
     22 C         141.5361  138.9666  165.8000 C.ar    1  UNL1        0.0501
     23 C         140.0762  139.2975  165.8960 C.ar    1  UNL1        0.0148
     24 C         139.5240  139.8955  167.1559 C.ar    1  UNL1        0.0055
     25 C         140.4317  140.1626  168.3198 C.ar    1  UNL1        0.0497
     26 C         139.8795  140.7607  169.5798 C.2     1  UNL1        0.2488
     27 O         139.2573  139.8765  170.6196 O.2     1  UNL1       -0.2699
     28 N         139.9495  142.2427  169.7999 N.am    1  UNL1       -0.2726
     29 C         139.3972  142.8408  171.0599 C.3     1  UNL1        0.1152
     30 C         140.5717  143.1268  168.7601 C.3     1  UNL1        0.1152
@<TRIPOS>BOND
     1    19    20    1
     2    20    21   ar
     3    21    22   ar
     4    22    17    1
     5    17     1    1
     6     1     2   ar
     7     2     3   ar
     8     3     4   ar
     9     4     5    1
    10     4     6   ar
    11     6     8    1
    12     8     9   ar
    13     9    10   ar
    14    10    11   ar
    15    11    12    1
    16    11    13   ar
    17    13    14    1
    18    14    15    1
    19    14    16    1
    20     6     7   ar
    21    22    23   ar
    22    23    24   ar
    23    24    25   ar
    24    25    26    1
    25    26    27    2
    26    26    28   am
    27    28    29    1
    28    28    30    1
    29    25    20   ar
    30     7     1   ar
    31    13     8   ar
    32    17    18    1
@<TRIPOS>MOLECULE
*****
 30 32 0 0 0
SMALL
GASTEIGER

@<TRIPOS>ATOM
      1 C         139.6179  138.6728  162.7466 C.ar    1  UNL1        0.2209
      2 N         139.3269  138.0702  161.4040 N.ar    1  UNL1       -0.2096
      3 C         138.8797  138.9448  160.2704 C.ar    1  UNL1        0.1330
      4 C         138.7235  140.4220  160.4793 C.ar    1  UNL1        0.1783
      5 F         138.2763  141.2966  159.3457 F       1  UNL1       -0.2009
      6 C         139.0145  141.0245  161.8218 C.ar    1  UNL1        0.1303
      7 N         139.4616  140.1499  162.9554 N.ar    1  UNL1       -0.2097
      8 C         138.8582  142.5017  162.0307 C.ar    1  UNL1        0.1003
      9 C         137.6933  143.1808  162.6878 C.ar    1  UNL1        0.1189
     10 N         137.9546  144.6580  162.6824 N.ar    1  UNL1       -0.2293
     11 C         139.2810  144.8916  162.0220 C.ar    1  UNL1        0.1208
     12 C         139.9342  146.2239  161.8028 C.3     1  UNL1        0.0718
     13 N         139.8395  143.5590  161.6192 N.ar    1  UNL1       -0.3155
     14 C         141.1492  143.3247  160.9266 C.3     1  UNL1        0.0868
     15 C         141.1913  143.1668  159.4355 C.3     1  UNL1        0.0245
     16 C         142.4167  143.2484  161.7250 C.3     1  UNL1        0.0245
     17 N         140.0651  137.7982  163.8802 N.pl3   1  UNL1       -0.2825
     18 H         139.9248  136.8247  163.8358 H       1  UNL1        0.1551
     19 C         139.7398  140.4719  168.3237 C.3     1  UNL1        0.0312
     20 C         140.5632  139.7437  167.3032 C.ar    1  UNL1       -0.0162
     21 C         139.9024  139.1351  166.1020 C.ar    1  UNL1        0.0106
     22 C         140.7259  138.4068  165.0814 C.ar    1  UNL1        0.0501
     23 C         142.2101  138.2871  165.2621 C.ar    1  UNL1        0.0148
     24 C         142.8709  138.8957  166.4633 C.ar    1  UNL1        0.0055
     25 C         142.0474  139.6240  167.4839 C.ar    1  UNL1        0.0497
     26 C         142.7083  140.2326  168.6851 C.2     1  UNL1        0.2488
     27 O         142.9002  139.4170  169.9293 O.2     1  UNL1       -0.2699
     28 N         143.1773  141.6567  168.6421 N.am    1  UNL1       -0.2726
     29 C         143.8381  142.2653  169.8434 C.3     1  UNL1        0.1152
     30 C         142.9854  142.4723  167.3980 C.3     1  UNL1        0.1152
@<TRIPOS>BOND
     1    19    20    1
     2    20    21   ar
     3    21    22   ar
     4    22    17    1
     5    17     1    1
     6     1     2   ar
     7     2     3   ar
     8     3     4   ar
     9     4     5    1
    10     4     6   ar
    11     6     8    1
    12     8     9   ar
    13     9    10   ar
    14    10    11   ar
    15    11    12    1
    16    11    13   ar
    17    13    14    1
    18    14    15    1
    19    14    16    1
    20     6     7   ar
    21    22    23   ar
    22    23    24   ar
    23    24    25   ar
    24    25    26    1
    25    26    27    2
    26    26    28   am
    27    28    29    1
    28    28    30    1
    29    25    20   ar
    30     7     1   ar
    31    13     8   ar
    32    17    18    1
@<TRIPOS>MOLECULE
*****
 30 32 0 0 0
SMALL
GASTEIGER

@<TRIPOS>ATOM
      1 C         141.0438  138.7364  163.0406 C.ar    1  UNL1        0.2209
      2 N         140.4480  137.7905  162.0404 N.ar    1  UNL1       -0.2096
      3 C         139.9134  138.3130  160.7399 C.ar    1  UNL1        0.1330
      4 C         139.9746  139.7814  160.4397 C.ar    1  UNL1        0.1783
      5 F         139.4400  140.3040  159.1393 F       1  UNL1       -0.2009
      6 C         140.5703  140.7273  161.4400 C.ar    1  UNL1        0.1303
      7 N         141.1049  140.2047  162.7404 N.ar    1  UNL1       -0.2097
      8 C         140.6315  142.1957  161.1398 C.ar    1  UNL1        0.1003
      9 C         141.3480  142.8303  159.9848 C.ar    1  UNL1        0.1189
     10 N         141.1463  144.3141  160.0730 N.ar    1  UNL1       -0.2293
     11 C         140.3050  144.5964  161.2825 C.ar    1  UNL1        0.1208
     12 C         139.8600  145.9502  161.7504 C.3     1  UNL1        0.0718
     13 N         139.9869  143.2872  161.9417 N.ar    1  UNL1       -0.3155
     14 C         139.1679  143.1018  163.1846 C.3     1  UNL1        0.0868
     15 C         137.6945  142.8410  163.0800 C.3     1  UNL1        0.0245
     16 C         139.8223  143.1774  164.5322 C.3     1  UNL1        0.0245
     17 N         141.5783  138.2139  164.3411 N.pl3   1  UNL1       -0.2825
     18 H         142.2064  137.4558  164.3461 H       1  UNL1        0.1551
     19 C         142.7862  140.1508  169.0090 C.3     1  UNL1        0.0312
     20 C         141.7599  139.8149  167.9679 C.ar    1  UNL1       -0.0162
     21 C         142.1822  139.1823  166.6751 C.ar    1  UNL1        0.0106
     22 C         141.1559  138.8464  165.6340 C.ar    1  UNL1        0.0501
     23 C         139.7073  139.1431  165.8857 C.ar    1  UNL1        0.0148
     24 C         139.2850  139.7756  167.1786 C.ar    1  UNL1        0.0055
     25 C         140.3113  140.1115  168.2197 C.ar    1  UNL1        0.0497
     26 C         139.8889  140.7441  169.5126 C.2     1  UNL1        0.2488
     27 O         139.3882  139.8881  170.6380 O.2     1  UNL1       -0.2699
     28 N         139.9672  142.2326  169.6800 N.am    1  UNL1       -0.2726
     29 C         139.5448  142.8652  170.9729 C.3     1  UNL1        0.1152
     30 C         140.4679  143.0887  168.5546 C.3     1  UNL1        0.1152
@<TRIPOS>BOND
     1    19    20    1
     2    20    21   ar
     3    21    22   ar
     4    22    17    1
     5    17     1    1
     6     1     2   ar
     7     2     3   ar
     8     3     4   ar
     9     4     5    1
    10     4     6   ar
    11     6     8    1
    12     8     9   ar
    13     9    10   ar
    14    10    11   ar
    15    11    12    1
    16    11    13   ar
    17    13    14    1
    18    14    15    1
    19    14    16    1
    20     6     7   ar
    21    22    23   ar
    22    23    24   ar
    23    24    25   ar
    24    25    26    1
    25    26    27    2
    26    26    28   am
    27    28    29    1
    28    28    30    1
    29    25    20   ar
    30     7     1   ar
    31    13     8   ar
    32    17    18    1
@<TRIPOS>MOLECULE
*****
 30 32 0 0 0
SMALL
GASTEIGER

@<TRIPOS>ATOM
      1 C         138.7128  138.8436  162.8917 C.ar    1  UNL1        0.2209
      2 N         137.7542  138.3514  161.8482 N.ar    1  UNL1       -0.2096
      3 C         137.4651  139.1914  160.6395 C.ar    1  UNL1        0.1330
      4 C         138.1347  140.5235  160.4744 C.ar    1  UNL1        0.1783
      5 F         137.8456  141.3635  159.2657 F       1  UNL1       -0.2009
      6 C         139.0932  141.0156  161.5179 C.ar    1  UNL1        0.1303
      7 N         139.3823  140.1757  162.7266 N.ar    1  UNL1       -0.2097
      8 C         139.7627  142.3478  161.3528 C.ar    1  UNL1        0.1003
      9 C         140.6251  142.7640  160.1983 C.ar    1  UNL1        0.1189
     10 N         141.0828  144.1710  160.4451 N.ar    1  UNL1       -0.2293
     11 C         140.5032  144.6244  161.7523 C.ar    1  UNL1        0.1208
     12 C         140.7041  145.9684  162.3870 C.3     1  UNL1        0.0718
     13 N         139.6873  143.4975  162.3132 N.ar    1  UNL1       -0.3155
     14 C         138.9292  143.5170  163.6074 C.3     1  UNL1        0.0868
     15 C         137.5102  144.0024  163.6381 C.3     1  UNL1        0.0245
     16 C         139.5899  143.0511  164.8708 C.3     1  UNL1        0.0245
     17 N         139.0019  138.0036  164.1004 N.pl3   1  UNL1       -0.2825
     18 H         138.6266  137.0961  164.1704 H       1  UNL1        0.1551
     19 C         143.6857  138.6154  166.2655 C.3     1  UNL1        0.0312
     20 C         142.2046  138.8522  166.2850 C.ar    1  UNL1       -0.0162
     21 C         141.3438  138.3095  165.1830 C.ar    1  UNL1        0.0106
     22 C         139.8627  138.5463  165.2025 C.ar    1  UNL1        0.0501
     23 C         139.2425  139.3258  166.3239 C.ar    1  UNL1        0.0148
     24 C         140.1034  139.8685  167.4259 C.ar    1  UNL1        0.0055
     25 C         141.5844  139.6317  167.4064 C.ar    1  UNL1        0.0497
     26 C         142.4453  140.1744  168.5085 C.2     1  UNL1        0.2488
     27 O         142.8446  139.2904  169.6527 O.2     1  UNL1       -0.2699
     28 N         142.9068  141.6010  168.4663 N.am    1  UNL1       -0.2726
     29 C         143.7676  142.1437  169.5684 C.3     1  UNL1        0.1152
     30 C         142.5074  142.4849  167.3221 C.3     1  UNL1        0.1152
@<TRIPOS>BOND
     1    19    20    1
     2    20    21   ar
     3    21    22   ar
     4    22    17    1
     5    17     1    1
     6     1     2   ar
     7     2     3   ar
     8     3     4   ar
     9     4     5    1
    10     4     6   ar
    11     6     8    1
    12     8     9   ar
    13     9    10   ar
    14    10    11   ar
    15    11    12    1
    16    11    13   ar
    17    13    14    1
    18    14    15    1
    19    14    16    1
    20     6     7   ar
    21    22    23   ar
    22    23    24   ar
    23    24    25   ar
    24    25    26    1
    25    26    27    2
    26    26    28   am
    27    28    29    1
    28    28    30    1
    29    25    20   ar
    30     7     1   ar
    31    13     8   ar
    32    17    18    1
@<TRIPOS>MOLECULE
*****
 30 32 0 0 0
SMALL
GASTEIGER

@<TRIPOS>ATOM
      1 C         142.8774  140.4776  159.8828 C.ar    1  UNL1        0.2209
      2 N         142.7396  140.4471  158.3894 N.ar    1  UNL1       -0.2096
      3 C         141.7726  141.3682  157.7064 C.ar    1  UNL1        0.1330
      4 C         140.9433  142.3198  158.5169 C.ar    1  UNL1        0.1783
      5 F         139.9763  143.2409  157.8339 F       1  UNL1       -0.2009
      6 C         141.0811  142.3503  160.0102 C.ar    1  UNL1        0.1303
      7 N         142.0481  141.4292  160.6931 N.ar    1  UNL1       -0.2097
      8 C         140.2518  143.3020  160.8207 C.ar    1  UNL1        0.1003
      9 C         140.2333  144.7952  160.6800 C.ar    1  UNL1        0.1189
     10 N         139.2656  145.3436  161.6864 N.ar    1  UNL1       -0.2293
     11 C         138.6861  144.1892  162.4491 C.ar    1  UNL1        0.1208
     12 C         137.6746  144.2805  163.5529 C.3     1  UNL1        0.0718
     13 N         139.2956  142.9274  161.9140 N.ar    1  UNL1       -0.3155
     14 C         139.0008  141.5354  162.3888 C.3     1  UNL1        0.0868
     15 C         139.8523  140.9101  163.4537 C.3     1  UNL1        0.0245
     16 C         137.8545  140.7687  161.7987 C.3     1  UNL1        0.0245
     17 N         143.8444  139.5565  160.5657 N.pl3   1  UNL1       -0.2825
     18 H         144.5411  139.0983  160.0424 H       1  UNL1        0.1551
     19 C         141.4641  137.3960  164.6482 C.3     1  UNL1        0.0312
     20 C         142.5598  138.2533  164.0873 C.ar    1  UNL1       -0.0162
     21 C         142.6543  138.4762  162.6070 C.ar    1  UNL1        0.0106
     22 C         143.7499  139.3335  162.0461 C.ar    1  UNL1        0.0501
     23 C         144.7511  139.9679  162.9655 C.ar    1  UNL1        0.0148
     24 C         144.6565  139.7449  164.4458 C.ar    1  UNL1        0.0055
     25 C         143.5609  138.8876  165.0067 C.ar    1  UNL1        0.0497
     26 C         143.4664  138.6647  166.4870 C.2     1  UNL1        0.2488
     27 O         144.2416  137.5524  167.1290 O.2     1  UNL1       -0.2699
     28 N         142.5968  139.5539  167.3254 N.am    1  UNL1       -0.2726
     29 C         142.5023  139.3309  168.8058 C.3     1  UNL1        0.1152
     30 C         141.8216  140.6661  166.6835 C.3     1  UNL1        0.1152
@<TRIPOS>BOND
     1    19    20    1
     2    20    21   ar
     3    21    22   ar
     4    22    17    1
     5    17     1    1
     6     1     2   ar
     7     2     3   ar
     8     3     4   ar
     9     4     5    1
    10     4     6   ar
    11     6     8    1
    12     8     9   ar
    13     9    10   ar
    14    10    11   ar
    15    11    12    1
    16    11    13   ar
    17    13    14    1
    18    14    15    1
    19    14    16    1
    20     6     7   ar
    21    22    23   ar
    22    23    24   ar
    23    24    25   ar
    24    25    26    1
    25    26    27    2
    26    26    28   am
    27    28    29    1
    28    28    30    1
    29    25    20   ar
    30     7     1   ar
    31    13     8   ar
    32    17    18    1
@<TRIPOS>MOLECULE
*****
 30 32 0 0 0
SMALL
GASTEIGER

@<TRIPOS>ATOM
      1 C         144.1468  141.6638  163.6905 C.ar    1  UNL1        0.2209
      2 N         145.2109  140.6073  163.7318 N.ar    1  UNL1       -0.2096
      3 C         145.0094  139.3719  164.5583 C.ar    1  UNL1        0.1330
      4 C         143.7439  139.1930  165.3435 C.ar    1  UNL1        0.1783
      5 F         143.5425  137.9575  166.1701 F       1  UNL1       -0.2009
      6 C         142.6799  140.2494  165.3022 C.ar    1  UNL1        0.1303
      7 N         142.8813  141.4849  164.4757 N.ar    1  UNL1       -0.2097
      8 C         141.4144  140.0705  166.0875 C.ar    1  UNL1        0.1003
      9 C         141.0927  140.7194  167.4010 C.ar    1  UNL1        0.1189
     10 N         139.7279  140.2612  167.8224 N.ar    1  UNL1       -0.2293
     11 C         139.2062  139.3291  166.7692 C.ar    1  UNL1        0.1208
     12 C         137.8758  138.6366  166.7855 C.3     1  UNL1        0.0718
     13 N         140.2485  139.2113  165.6970 N.ar    1  UNL1       -0.3155
     14 C         140.1434  138.3802  164.4528 C.3     1  UNL1        0.0868
     15 C         140.9087  137.0947  164.3426 C.3     1  UNL1        0.0245
     16 C         139.2732  138.8344  163.3186 C.3     1  UNL1        0.0245
     17 N         144.3482  142.8993  162.8640 N.pl3   1  UNL1       -0.2825
     18 H         145.1318  143.4741  163.0209 H       1  UNL1        0.1551
     19 C         140.2863  145.7173  161.2638 C.3     1  UNL1        0.0312
     20 C         141.3247  144.6678  160.9983 C.ar    1  UNL1       -0.0162
     21 C         142.3172  144.3083  162.0639 C.ar    1  UNL1        0.0106
     22 C         143.3556  143.2588  161.7983 C.ar    1  UNL1        0.0501
     23 C         143.4013  142.5688  160.4672 C.ar    1  UNL1        0.0148
     24 C         142.4087  142.9284  159.4017 C.ar    1  UNL1        0.0055
     25 C         141.3704  143.9779  159.6672 C.ar    1  UNL1        0.0497
     26 C         140.3777  144.3374  158.6016 C.2     1  UNL1        0.2488
     27 O         139.0226  143.6944  158.5913 O.2     1  UNL1       -0.2699
     28 N         140.7403  145.3398  157.5463 N.am    1  UNL1       -0.2726
     29 C         139.7477  145.6993  156.4807 C.3     1  UNL1        0.1152
     30 C         142.0955  145.9828  157.5566 C.3     1  UNL1        0.1152
@<TRIPOS>BOND
     1    19    20    1
     2    20    21   ar
     3    21    22   ar
     4    22    17    1
     5    17     1    1
     6     1     2   ar
     7     2     3   ar
     8     3     4   ar
     9     4     5    1
    10     4     6   ar
    11     6     8    1
    12     8     9   ar
    13     9    10   ar
    14    10    11   ar
    15    11    12    1
    16    11    13   ar
    17    13    14    1
    18    14    15    1
    19    14    16    1
    20     6     7   ar
    21    22    23   ar
    22    23    24   ar
    23    24    25   ar
    24    25    26    1
    25    26    27    2
    26    26    28   am
    27    28    29    1
    28    28    30    1
    29    25    20   ar
    30     7     1   ar
    31    13     8   ar
    32    17    18    1
@<TRIPOS>MOLECULE
*****
 30 32 0 0 0
SMALL
GASTEIGER

@<TRIPOS>ATOM
      1 C         141.3539  138.3436  164.4419 C.ar    1  UNL1        0.2209
      2 N         140.0875  137.7177  163.9374 N.ar    1  UNL1       -0.2096
      3 C         138.7901  137.9752  164.6447 C.ar    1  UNL1        0.1330
      4 C         138.7591  138.8585  165.8567 C.ar    1  UNL1        0.1783
      5 F         137.4616  139.1160  166.5641 F       1  UNL1       -0.2009
      6 C         140.0254  139.4844  166.3612 C.ar    1  UNL1        0.1303
      7 N         141.3228  139.2270  165.6538 N.ar    1  UNL1       -0.2097
      8 C         139.9944  140.3678  167.5731 C.ar    1  UNL1        0.1003
      9 C         139.5452  139.9650  168.9464 C.ar    1  UNL1        0.1189
     10 N         139.6803  141.1573  169.8466 N.ar    1  UNL1       -0.2293
     11 C         140.2130  142.2969  169.0296 C.ar    1  UNL1        0.1208
     12 C         140.5010  143.6813  169.5298 C.3     1  UNL1        0.0718
     13 N         140.4071  141.8090  167.6245 N.ar    1  UNL1       -0.3155
     14 C         140.9233  142.6198  166.4730 C.3     1  UNL1        0.0868
     15 C         139.9853  143.4858  165.6853 C.3     1  UNL1        0.0245
     16 C         142.3774  142.5647  166.1090 C.3     1  UNL1        0.0245
     17 N         142.6513  138.0862  163.7345 N.pl3   1  UNL1       -0.2825
     18 H         143.3520  137.5498  164.1711 H       1  UNL1        0.1551
     19 C         144.2560  141.9595  160.6650 C.3     1  UNL1        0.0312
     20 C         143.6835  140.5826  160.8272 C.ar    1  UNL1       -0.0162
     21 C         143.4537  140.0228  162.1997 C.ar    1  UNL1        0.0106
     22 C         142.8811  138.6459  162.3619 C.ar    1  UNL1        0.0501
     23 C         142.5384  137.8288  161.1517 C.ar    1  UNL1        0.0148
     24 C         142.7682  138.3886  159.7792 C.ar    1  UNL1        0.0055
     25 C         143.3408  139.7655  159.6169 C.ar    1  UNL1        0.0497
     26 C         143.5706  140.3253  158.2443 C.2     1  UNL1        0.2488
     27 O         144.8771  140.0879  157.5467 O.2     1  UNL1       -0.2699
     28 N         142.4939  141.1223  157.5695 N.am    1  UNL1       -0.2726
     29 C         142.7237  141.6821  156.1969 C.3     1  UNL1        0.1152
     30 C         141.1874  141.3596  158.2671 C.3     1  UNL1        0.1152
@<TRIPOS>BOND
     1    19    20    1
     2    20    21   ar
     3    21    22   ar
     4    22    17    1
     5    17     1    1
     6     1     2   ar
     7     2     3   ar
     8     3     4   ar
     9     4     5    1
    10     4     6   ar
    11     6     8    1
    12     8     9   ar
    13     9    10   ar
    14    10    11   ar
    15    11    12    1
    16    11    13   ar
    17    13    14    1
    18    14    15    1
    19    14    16    1
    20     6     7   ar
    21    22    23   ar
    22    23    24   ar
    23    24    25   ar
    24    25    26    1
    25    26    27    2
    26    26    28   am
    27    28    29    1
    28    28    30    1
    29    25    20   ar
    30     7     1   ar
    31    13     8   ar
    32    17    18    1
@<TRIPOS>MOLECULE
*****
 30 32 0 0 0
SMALL
GASTEIGER

@<TRIPOS>ATOM
      1 C         137.9087  140.4579  162.2344 C.ar    1  UNL1        0.2209
      2 N         138.2467  139.0456  161.8586 N.ar    1  UNL1       -0.2096
      3 C         138.8807  138.7541  160.5307 C.ar    1  UNL1        0.1330
      4 C         139.1766  139.8750  159.5788 C.ar    1  UNL1        0.1783
      5 F         139.8106  139.5835  158.2509 F       1  UNL1       -0.2009
      6 C         138.8386  141.2872  159.9547 C.ar    1  UNL1        0.1303
      7 N         138.2046  141.5786  161.2825 N.ar    1  UNL1       -0.2097
      8 C         139.1346  142.4081  159.0027 C.ar    1  UNL1        0.1003
      9 C         138.5068  142.6093  157.6553 C.ar    1  UNL1        0.1189
     10 N         139.0945  143.8501  157.0508 N.ar    1  UNL1       -0.2293
     11 C         140.0853  144.4156  158.0247 C.ar    1  UNL1        0.1208
     12 C         140.9071  145.6547  157.8270 C.3     1  UNL1        0.0718
     13 N         140.1101  143.5244  159.2310 N.ar    1  UNL1       -0.3155
     14 C         140.9610  143.7158  160.4514 C.3     1  UNL1        0.0868
     15 C         140.4305  144.4898  161.6217 C.3     1  UNL1        0.0245
     16 C         142.3423  143.1333  160.5015 C.3     1  UNL1        0.0245
     17 N         137.2747  140.7493  163.5623 N.pl3   1  UNL1       -0.2825
     18 H         136.3308  141.0253  163.6071 H       1  UNL1        0.1551
     19 C         140.6569  142.7433  166.9659 C.3     1  UNL1        0.0312
     20 C         139.7701  141.6173  166.5236 C.ar    1  UNL1       -0.0162
     21 C         138.9658  141.7463  165.2641 C.ar    1  UNL1        0.0106
     22 C         138.0790  140.6202  164.8219 C.ar    1  UNL1        0.0501
     23 C         137.9965  139.3652  165.6391 C.ar    1  UNL1        0.0148
     24 C         138.8008  139.2362  166.8986 C.ar    1  UNL1        0.0055
     25 C         139.6876  140.3622  167.3409 C.ar    1  UNL1        0.0497
     26 C         140.4919  140.2332  168.6005 C.2     1  UNL1        0.2488
     27 O         139.8832  140.6040  169.9203 O.2     1  UNL1       -0.2699
     28 N         141.9049  139.7334  168.5402 N.am    1  UNL1       -0.2726
     29 C         142.7092  139.6043  169.7998 C.3     1  UNL1        0.1152
     30 C         142.5136  139.3626  167.2204 C.3     1  UNL1        0.1152
@<TRIPOS>BOND
     1    19    20    1
     2    20    21   ar
     3    21    22   ar
     4    22    17    1
     5    17     1    1
     6     1     2   ar
     7     2     3   ar
     8     3     4   ar
     9     4     5    1
    10     4     6   ar
    11     6     8    1
    12     8     9   ar
    13     9    10   ar
    14    10    11   ar
    15    11    12    1
    16    11    13   ar
    17    13    14    1
    18    14    15    1
    19    14    16    1
    20     6     7   ar
    21    22    23   ar
    22    23    24   ar
    23    24    25   ar
    24    25    26    1
    25    26    27    2
    26    26    28   am
    27    28    29    1
    28    28    30    1
    29    25    20   ar
    30     7     1   ar
    31    13     8   ar
    32    17    18    1
