@<TRIPOS>MOLECULE
*****
 29 30 0 0 0
SMALL
GASTEIGER

@<TRIPOS>ATOM
      1 C         141.6977  144.2945  162.8730 C.3     1  UNL1        0.0997
      2 C         140.6776  142.7043  166.9571 C.3     1  UNL1        0.0754
      3 C         139.6661  143.5020  166.1887 C.3     1  UNL1        0.0198
      4 C         140.0061  144.0321  164.8273 C.3     1  UNL1        0.0022
      5 C         141.3576  143.7645  164.2344 C.3     1  UNL1        0.0105
      6 C         142.3692  142.9668  165.0028 C.3     1  UNL1        0.0022
      7 C         142.0291  142.4367  166.3642 C.3     1  UNL1        0.0198
      8 C         139.4720  140.2474  169.8312 C.3     1  UNL1        0.0948
      9 C         139.8121  140.7775  168.4698 C.2     1  UNL1        0.2261
     10 O         139.6267  139.9107  167.2597 O.2     1  UNL1       -0.2749
     11 N         140.3375  142.1743  168.3185 N.am    1  UNL1       -0.2794
     12 C         140.5229  143.0410  169.5287 C.3     1  UNL1        0.1148
     13 C         143.0635  144.0632  162.2977 C.2     1  UNL1        0.2271
     14 O         144.1569  145.0620  162.5364 O.2     1  UNL1       -0.2748
     15 N         143.3360  142.8331  161.4837 N.am    1  UNL1       -0.2760
     16 C         144.7019  142.6018  160.9084 C.3     1  UNL1        0.1149
     17 C         142.2427  141.8343  161.2450 C.3     1  UNL1        0.1149
     18 C         140.6719  145.0559  162.0868 C.3     1  UNL1        0.1371
     19 N         140.4423  146.5118  162.3656 N.3     1  UNL1       -0.3146
     20 H         139.7158  146.8666  161.7436 H       1  UNL1        0.1192
     21 H         141.3073  147.0288  162.2077 H       1  UNL1        0.1192
     22 C         139.8758  144.3615  161.0219 C.2     1  UNL1        0.2402
     23 O         138.6713  143.5493  161.3957 O.2     1  UNL1       -0.2734
     24 N         140.2841  144.4792  159.5834 N.am    1  UNL1       -0.2756
     25 C         139.5897  143.8446  158.4151 C.3     1  UNL1        0.0964
     26 C         140.3349  144.2253  157.1702 C.3     1  UNL1        0.0585
     27 C         141.4900  145.0952  157.5693 C.3     1  UNL1        0.1824
     28 F         142.4993  145.7017  156.6400 F       1  UNL1       -0.2354
     29 C         141.4586  145.2520  159.0607 C.3     1  UNL1        0.1286
@<TRIPOS>BOND
     1     8     9    1
     2     9    10    2
     3     9    11   am
     4    11    12    1
     5    11     2    1
     6     2     3    1
     7     3     4    1
     8     4     5    1
     9     1     5    1
    10     1    13    1
    11    13    14    2
    12    13    15   am
    13    15    16    1
    14    15    17    1
    15     1    18    1
    16    18    19    1
    17    18    22    1
    18    22    23    2
    19    22    24   am
    20    24    25    1
    21    25    26    1
    22    26    27    1
    23    27    28    1
    24    27    29    1
    25     5     6    1
    26     6     7    1
    27     7     2    1
    28    29    24    1
    29    19    20    1
    30    19    21    1
@<TRIPOS>MOLECULE
*****
 29 30 0 0 0
SMALL
GASTEIGER

@<TRIPOS>ATOM
      1 C         143.1518  142.3262  163.1754 C.3     1  UNL1        0.0997
      2 C         142.3038  141.5714  167.5298 C.3     1  UNL1        0.0754
      3 C         141.5037  140.8643  166.4764 C.3     1  UNL1        0.0198
      4 C         141.7864  141.1159  165.0249 C.3     1  UNL1        0.0022
      5 C         142.8691  142.0746  164.6269 C.3     1  UNL1        0.0105
      6 C         143.6693  142.7817  165.6803 C.3     1  UNL1        0.0022
      7 C         143.3866  142.5301  167.1318 C.3     1  UNL1        0.0198
      8 C         140.7868  141.9574  171.1767 C.3     1  UNL1        0.0948
      9 C         141.0694  142.2090  169.7252 C.2     1  UNL1        0.2261
     10 O         140.4003  143.3499  169.0176 O.2     1  UNL1       -0.2749
     11 N         142.0212  141.3198  168.9813 N.am    1  UNL1       -0.2794
     12 C         142.6903  140.1789  169.6889 C.3     1  UNL1        0.1148
     13 C         144.0119  141.3710  162.4022 C.2     1  UNL1        0.2271
     14 O         145.4922  141.5970  162.3146 O.2     1  UNL1       -0.2748
     15 N         143.3917  140.1898  161.7166 N.am    1  UNL1       -0.2760
     16 C         144.2518  139.2346  160.9434 C.3     1  UNL1        0.1149
     17 C         141.9114  139.9638  161.8041 C.3     1  UNL1        0.1149
     18 C         142.5744  143.5330  162.4971 C.3     1  UNL1        0.1371
     19 N         143.3984  144.7780  162.3521 N.3     1  UNL1       -0.3146
     20 H         142.8527  145.4928  161.8707 H       1  UNL1        0.1192
     21 H         144.2376  144.5692  161.8112 H       1  UNL1        0.1192
     22 C         141.1729  143.4949  161.9637 C.2     1  UNL1        0.2402
     23 O         140.9167  143.0292  160.5610 O.2     1  UNL1       -0.2734
     24 N         140.0277  143.9224  162.8329 N.am    1  UNL1       -0.2756
     25 C         138.5803  143.9383  162.4396 C.3     1  UNL1        0.0964
     26 C         137.7868  144.4348  163.6117 C.3     1  UNL1        0.0585
     27 C         138.7439  144.7256  164.7296 C.3     1  UNL1        0.1824
     28 F         138.3799  145.2425  166.0899 F       1  UNL1       -0.2354
     29 C         140.1288  144.4090  164.2482 C.3     1  UNL1        0.1286
@<TRIPOS>BOND
     1     8     9    1
     2     9    10    2
     3     9    11   am
     4    11    12    1
     5    11     2    1
     6     2     3    1
     7     3     4    1
     8     4     5    1
     9     1     5    1
    10     1    13    1
    11    13    14    2
    12    13    15   am
    13    15    16    1
    14    15    17    1
    15     1    18    1
    16    18    19    1
    17    18    22    1
    18    22    23    2
    19    22    24   am
    20    24    25    1
    21    25    26    1
    22    26    27    1
    23    27    28    1
    24    27    29    1
    25     5     6    1
    26     6     7    1
    27     7     2    1
    28    29    24    1
    29    19    20    1
    30    19    21    1
@<TRIPOS>MOLECULE
*****
 29 30 0 0 0
SMALL
GASTEIGER

@<TRIPOS>ATOM
      1 C         138.8060  142.2879  163.2632 C.3     1  UNL1        0.0997
      2 C         140.1451  140.9107  167.3326 C.3     1  UNL1        0.0754
      3 C         140.7120  142.1676  166.7421 C.3     1  UNL1        0.0198
      4 C         140.2657  142.6267  165.3856 C.3     1  UNL1        0.0022
      5 C         139.2524  141.8288  164.6196 C.3     1  UNL1        0.0105
      6 C         138.6855  140.5719  165.2102 C.3     1  UNL1        0.0022
      7 C         139.1319  140.1129  166.5666 C.3     1  UNL1        0.0198
      8 C         142.3476  139.2784  170.2022 C.3     1  UNL1        0.0948
      9 C         141.9012  139.7374  168.8457 C.2     1  UNL1        0.2261
     10 O         142.7646  139.4823  167.6459 O.2     1  UNL1       -0.2749
     11 N         140.5915  140.4516  168.6891 N.am    1  UNL1       -0.2794
     12 C         139.7282  140.7067  169.8888 C.3     1  UNL1        0.1148
     13 C         138.7284  143.7539  162.9555 C.2     1  UNL1        0.2271
     14 O         137.4571  144.5078  163.2116 O.2     1  UNL1       -0.2748
     15 N         139.9221  144.4662  162.3917 N.am    1  UNL1       -0.2760
     16 C         139.8444  145.9323  162.0840 C.3     1  UNL1        0.1149
     17 C         141.1934  143.7124  162.1356 C.3     1  UNL1        0.1149
     18 C         138.4372  141.2810  162.2144 C.3     1  UNL1        0.1371
     19 N         137.0279  140.7757  162.1224 N.3     1  UNL1       -0.3146
     20 H         136.9571  140.1027  161.3592 H       1  UNL1        0.1192
     21 H         136.3972  141.5576  161.9458 H       1  UNL1        0.1192
     22 C         139.4778  140.7793  161.2575 C.2     1  UNL1        0.2402
     23 O         139.7225  141.5046  159.9676 O.2     1  UNL1       -0.2734
     24 N         140.2737  139.5522  161.5906 N.am    1  UNL1       -0.2756
     25 C         141.3417  138.9355  160.7369 C.3     1  UNL1        0.0964
     26 C         141.8694  137.7286  161.4545 C.3     1  UNL1        0.0585
     27 C         141.1273  137.5994  162.7517 C.3     1  UNL1        0.1824
     28 F         141.3350  136.5307  163.7837 F       1  UNL1       -0.2354
     29 C         140.1411  138.7265  162.8358 C.3     1  UNL1        0.1286
@<TRIPOS>BOND
     1     8     9    1
     2     9    10    2
     3     9    11   am
     4    11    12    1
     5    11     2    1
     6     2     3    1
     7     3     4    1
     8     4     5    1
     9     1     5    1
    10     1    13    1
    11    13    14    2
    12    13    15   am
    13    15    16    1
    14    15    17    1
    15     1    18    1
    16    18    19    1
    17    18    22    1
    18    22    23    2
    19    22    24   am
    20    24    25    1
    21    25    26    1
    22    26    27    1
    23    27    28    1
    24    27    29    1
    25     5     6    1
    26     6     7    1
    27     7     2    1
    28    29    24    1
    29    19    20    1
    30    19    21    1
@<TRIPOS>MOLECULE
*****
 29 30 0 0 0
SMALL
GASTEIGER

@<TRIPOS>ATOM
      1 C         140.9874  142.6362  162.9861 C.3     1  UNL1        0.0997
      2 C         141.8452  141.9988  167.3574 C.3     1  UNL1        0.0754
      3 C         140.4320  141.9570  166.8565 C.3     1  UNL1        0.0198
      4 C         140.1460  142.1695  165.3994 C.3     1  UNL1        0.0022
      5 C         141.2733  142.4238  164.4432 C.3     1  UNL1        0.0105
      6 C         142.6866  142.4656  164.9440 C.3     1  UNL1        0.0022
      7 C         142.9725  142.2531  166.4011 C.3     1  UNL1        0.0198
      8 C         142.9757  140.2641  170.7430 C.3     1  UNL1        0.0948
      9 C         142.6898  140.4765  169.2859 C.2     1  UNL1        0.2261
     10 O         142.9624  139.3791  168.3003 O.2     1  UNL1       -0.2749
     11 N         142.1312  141.7864  168.8144 N.am    1  UNL1       -0.2794
     12 C         141.8585  142.8837  169.8000 C.3     1  UNL1        0.1148
     13 C         141.0344  144.0189  162.4064 C.2     1  UNL1        0.2271
     14 O         142.3140  144.5466  161.8283 O.2     1  UNL1       -0.2748
     15 N         139.8019  144.8738  162.4048 N.am    1  UNL1       -0.2760
     16 C         139.8490  146.2565  161.8250 C.3     1  UNL1        0.1149
     17 C         138.5223  144.3461  162.9828 C.3     1  UNL1        0.1149
     18 C         140.6544  141.4661  162.1087 C.3     1  UNL1        0.1371
     19 N         139.4650  141.5269  161.1967 N.3     1  UNL1       -0.3146
     20 H         139.3892  140.6519  160.6781 H       1  UNL1        0.1192
     21 H         139.5775  142.3013  160.5425 H       1  UNL1        0.1192
     22 C         141.5108  140.2350  162.1433 C.2     1  UNL1        0.2402
     23 O         142.7724  140.1761  161.3340 O.2     1  UNL1       -0.2734
     24 N         141.1056  139.0630  162.9871 N.am    1  UNL1       -0.2756
     25 C         141.8567  137.7715  163.1213 C.3     1  UNL1        0.0964
     26 C         141.0935  136.8870  164.0620 C.3     1  UNL1        0.0585
     27 C         139.8706  137.6317  164.5093 C.3     1  UNL1        0.1824
     28 F         138.8240  137.1213  165.4549 F       1  UNL1       -0.2354
     29 C         139.8781  138.9766  163.8450 C.3     1  UNL1        0.1286
@<TRIPOS>BOND
     1     8     9    1
     2     9    10    2
     3     9    11   am
     4    11    12    1
     5    11     2    1
     6     2     3    1
     7     3     4    1
     8     4     5    1
     9     1     5    1
    10     1    13    1
    11    13    14    2
    12    13    15   am
    13    15    16    1
    14    15    17    1
    15     1    18    1
    16    18    19    1
    17    18    22    1
    18    22    23    2
    19    22    24   am
    20    24    25    1
    21    25    26    1
    22    26    27    1
    23    27    28    1
    24    27    29    1
    25     5     6    1
    26     6     7    1
    27     7     2    1
    28    29    24    1
    29    19    20    1
    30    19    21    1
@<TRIPOS>MOLECULE
*****
 29 30 0 0 0
SMALL
GASTEIGER

@<TRIPOS>ATOM
      1 C         143.5072  142.5537  163.4007 C.3     1  UNL1        0.0997
      2 C         141.2737  142.3189  167.3002 C.3     1  UNL1        0.0754
      3 C         142.7663  142.1725  167.2809 C.3     1  UNL1        0.0198
      4 C         143.5108  142.2508  165.9810 C.3     1  UNL1        0.0022
      5 C         142.7627  142.4755  164.7005 C.3     1  UNL1        0.0105
      6 C         141.2700  142.6218  164.7199 C.3     1  UNL1        0.0022
      7 C         140.5255  142.5435  166.0197 C.3     1  UNL1        0.0198
      8 C         139.0719  140.8987  170.2810 C.3     1  UNL1        0.0948
      9 C         139.8164  140.9770  168.9812 C.2     1  UNL1        0.2261
     10 O         139.8481  139.7916  168.0625 O.2     1  UNL1       -0.2749
     11 N         140.5291  142.2406  168.6001 N.am    1  UNL1       -0.2794
     12 C         140.4974  143.4259  169.5187 C.3     1  UNL1        0.1148
     13 C         143.2069  143.6568  162.4296 C.2     1  UNL1        0.2271
     14 O         143.9891  144.9357  162.4819 O.2     1  UNL1       -0.2748
     15 N         142.1243  143.4811  161.4063 N.am    1  UNL1       -0.2760
     16 C         141.8240  144.5842  160.4352 C.3     1  UNL1        0.1149
     17 C         141.3421  142.2023  161.3540 C.3     1  UNL1        0.1149
     18 C         144.5520  141.5290  163.0719 C.3     1  UNL1        0.1371
     19 N         145.9405  141.9638  162.7071 N.3     1  UNL1       -0.3146
     20 H         146.5147  141.1428  162.5161 H       1  UNL1        0.1192
     21 H         146.3463  142.4900  163.4810 H       1  UNL1        0.1192
     22 C         144.2084  140.0693  163.1080 C.2     1  UNL1        0.2402
     23 O         144.2468  139.3216  164.4078 O.2     1  UNL1       -0.2734
     24 N         143.8264  139.3573  161.8442 N.am    1  UNL1       -0.2756
     25 C         143.4594  137.9077  161.7254 C.3     1  UNL1        0.0964
     26 C         143.1505  137.6244  160.2851 C.3     1  UNL1        0.0585
     27 C         143.3267  138.8988  159.5138 C.3     1  UNL1        0.1824
     28 F         143.1212  139.0718  158.0381 F       1  UNL1       -0.2354
     29 C         143.7444  139.9698  160.4774 C.3     1  UNL1        0.1286
@<TRIPOS>BOND
     1     8     9    1
     2     9    10    2
     3     9    11   am
     4    11    12    1
     5    11     2    1
     6     2     3    1
     7     3     4    1
     8     4     5    1
     9     1     5    1
    10     1    13    1
    11    13    14    2
    12    13    15   am
    13    15    16    1
    14    15    17    1
    15     1    18    1
    16    18    19    1
    17    18    22    1
    18    22    23    2
    19    22    24   am
    20    24    25    1
    21    25    26    1
    22    26    27    1
    23    27    28    1
    24    27    29    1
    25     5     6    1
    26     6     7    1
    27     7     2    1
    28    29    24    1
    29    19    20    1
    30    19    21    1
@<TRIPOS>MOLECULE
*****
 29 30 0 0 0
SMALL
GASTEIGER

@<TRIPOS>ATOM
      1 C         141.2120  142.7650  162.7753 C.3     1  UNL1        0.0997
      2 C         141.9664  142.0139  167.1475 C.3     1  UNL1        0.0754
      3 C         143.1098  142.3463  166.2354 C.3     1  UNL1        0.0198
      4 C         142.8584  142.5967  164.7780 C.3     1  UNL1        0.0022
      5 C         141.4635  142.5146  164.2327 C.3     1  UNL1        0.0105
      6 C         140.3200  142.1822  165.1448 C.3     1  UNL1        0.0022
      7 C         140.5715  141.9318  166.6022 C.3     1  UNL1        0.0198
      8 C         142.9727  140.1755  170.5176 C.3     1  UNL1        0.0948
      9 C         142.7212  140.4259  169.0602 C.2     1  UNL1        0.2261
     10 O         142.9731  139.3385  168.0580 O.2     1  UNL1       -0.2749
     11 N         142.2178  141.7635  168.6049 N.am    1  UNL1       -0.2794
     12 C         141.9659  142.8507  169.6071 C.3     1  UNL1        0.1148
     13 C         141.1530  144.1706  162.2550 C.2     1  UNL1        0.2271
     14 O         142.3863  144.8158  161.6957 O.2     1  UNL1       -0.2748
     15 N         139.8606  144.9311  162.2941 N.am    1  UNL1       -0.2760
     16 C         139.8016  146.3368  161.7738 C.3     1  UNL1        0.1149
     17 C         138.6274  144.2860  162.8533 C.3     1  UNL1        0.1149
     18 C         141.0196  141.6098  161.8381 C.3     1  UNL1        0.1371
     19 N         142.0947  141.2553  160.8540 N.3     1  UNL1       -0.3146
     20 H         141.7980  140.4509  160.3014 H       1  UNL1        0.1192
     21 H         142.9525  141.0253  161.3557 H       1  UNL1        0.1192
     22 C         139.7521  140.8090  161.8850 C.2     1  UNL1        0.2402
     23 O         138.5196  141.3146  161.1955 O.2     1  UNL1       -0.2734
     24 N         139.7170  139.5027  162.6213 N.am    1  UNL1       -0.2756
     25 C         138.5287  138.5970  162.7539 C.3     1  UNL1        0.0964
     26 C         138.9414  137.4072  163.5689 C.3     1  UNL1        0.0585
     27 C         140.3848  137.5776  163.9399 C.3     1  UNL1        0.1824
     28 F         141.2049  136.6209  164.7537 F       1  UNL1       -0.2354
     29 C         140.8642  138.8726  163.3542 C.3     1  UNL1        0.1286
@<TRIPOS>BOND
     1     8     9    1
     2     9    10    2
     3     9    11   am
     4    11    12    1
     5    11     2    1
     6     2     3    1
     7     3     4    1
     8     4     5    1
     9     1     5    1
    10     1    13    1
    11    13    14    2
    12    13    15   am
    13    15    16    1
    14    15    17    1
    15     1    18    1
    16    18    19    1
    17    18    22    1
    18    22    23    2
    19    22    24   am
    20    24    25    1
    21    25    26    1
    22    26    27    1
    23    27    28    1
    24    27    29    1
    25     5     6    1
    26     6     7    1
    27     7     2    1
    28    29    24    1
    29    19    20    1
    30    19    21    1
@<TRIPOS>MOLECULE
*****
 29 30 0 0 0
SMALL
GASTEIGER

@<TRIPOS>ATOM
      1 C         142.0635  144.1862  162.9389 C.3     1  UNL1        0.0997
      2 C         140.7681  142.6634  166.9704 C.3     1  UNL1        0.0754
      3 C         142.1795  142.4544  166.5078 C.3     1  UNL1        0.0198
      4 C         142.6114  142.9620  165.1640 C.3     1  UNL1        0.0022
      5 C         141.6317  143.6786  164.2827 C.3     1  UNL1        0.0105
      6 C         140.2202  143.8877  164.7453 C.3     1  UNL1        0.0022
      7 C         139.7884  143.3801  166.0891 C.3     1  UNL1        0.0198
      8 C         139.3745  140.2520  169.7975 C.3     1  UNL1        0.0948
      9 C         139.8064  140.7596  168.4537 C.2     1  UNL1        0.2261
     10 O         139.7082  139.8708  167.2493 O.2     1  UNL1       -0.2749
     11 N         140.3363  142.1559  168.3142 N.am    1  UNL1       -0.2794
     12 C         140.4344  143.0445  169.5186 C.3     1  UNL1        0.1148
     13 C         143.4133  143.8196  162.3970 C.2     1  UNL1        0.2271
     14 O         144.5486  144.7958  162.4884 O.2     1  UNL1       -0.2748
     15 N         143.6278  142.4769  161.7636 N.am    1  UNL1       -0.2760
     16 C         144.9776  142.1104  161.2217 C.3     1  UNL1        0.1149
     17 C         142.4926  141.5008  161.6722 C.3     1  UNL1        0.1149
     18 C         141.1456  145.0604  162.1370 C.3     1  UNL1        0.1371
     19 N         140.5353  146.2798  162.7620 N.3     1  UNL1       -0.3146
     20 H         139.9433  146.7521  162.0786 H       1  UNL1        0.1192
     21 H         141.2753  146.9127  163.0657 H       1  UNL1        0.1192
     22 C         140.8379  144.7153  160.7100 C.2     1  UNL1        0.2402
     23 O         141.5083  145.4634  159.5961 O.2     1  UNL1       -0.2734
     24 N         139.8598  143.6220  160.3970 N.am    1  UNL1       -0.2756
     25 C         139.4543  143.1676  159.0262 C.3     1  UNL1        0.0964
     26 C         138.4594  142.0559  159.1818 C.3     1  UNL1        0.0585
     27 C         138.2499  141.8232  160.6488 C.3     1  UNL1        0.1824
     28 F         137.3355  140.8019  161.2578 F       1  UNL1       -0.2354
     29 C         139.1154  142.7911  161.3998 C.3     1  UNL1        0.1286
@<TRIPOS>BOND
     1     8     9    1
     2     9    10    2
     3     9    11   am
     4    11    12    1
     5    11     2    1
     6     2     3    1
     7     3     4    1
     8     4     5    1
     9     1     5    1
    10     1    13    1
    11    13    14    2
    12    13    15   am
    13    15    16    1
    14    15    17    1
    15     1    18    1
    16    18    19    1
    17    18    22    1
    18    22    23    2
    19    22    24   am
    20    24    25    1
    21    25    26    1
    22    26    27    1
    23    27    28    1
    24    27    29    1
    25     5     6    1
    26     6     7    1
    27     7     2    1
    28    29    24    1
    29    19    20    1
    30    19    21    1
@<TRIPOS>MOLECULE
*****
 29 30 0 0 0
SMALL
GASTEIGER

@<TRIPOS>ATOM
      1 C         139.9358  142.3349  163.3021 C.3     1  UNL1        0.0997
      2 C         141.9211  141.7688  167.3006 C.3     1  UNL1        0.0754
      3 C         142.5187  141.1495  166.0722 C.3     1  UNL1        0.0198
      4 C         141.8570  141.3382  164.7393 C.3     1  UNL1        0.0022
      5 C         140.5976  142.1462  164.6349 C.3     1  UNL1        0.0105
      6 C         139.9999  142.7655  165.8634 C.3     1  UNL1        0.0022
      7 C         140.6616  142.5768  167.1963 C.3     1  UNL1        0.0198
      8 C         142.8011  140.2822  170.8735 C.3     1  UNL1        0.0948
      9 C         142.1394  140.4709  169.5407 C.2     1  UNL1        0.2261
     10 O         141.0341  139.5503  169.1150 O.2     1  UNL1       -0.2749
     11 N         142.5828  141.5801  168.6335 N.am    1  UNL1       -0.2794
     12 C         143.6880  142.5006  169.0592 C.3     1  UNL1        0.1148
     13 C         140.3493  143.4704  162.4135 C.2     1  UNL1        0.2271
     14 O         141.4333  143.2703  161.3961 O.2     1  UNL1       -0.2748
     15 N         139.6789  144.8060  162.5423 N.am    1  UNL1       -0.2760
     16 C         140.0924  145.9416  161.6536 C.3     1  UNL1        0.1149
     17 C         138.5950  145.0062  163.5596 C.3     1  UNL1        0.1149
     18 C         138.8606  141.3881  162.8578 C.3     1  UNL1        0.1371
     19 N         137.5485  141.9216  162.3642 N.3     1  UNL1       -0.3146
     20 H         136.9408  141.1441  162.1061 H       1  UNL1        0.1192
     21 H         137.7073  142.5140  161.5492 H       1  UNL1        0.1192
     22 C         139.0975  139.9077  162.9072 C.2     1  UNL1        0.2402
     23 O         139.6824  139.2017  161.7199 O.2     1  UNL1       -0.2734
     24 N         138.7495  139.1333  164.1437 N.am    1  UNL1       -0.2756
     25 C         138.9287  137.6569  164.3391 C.3     1  UNL1        0.0964
     26 C         138.4511  137.3104  165.7181 C.3     1  UNL1        0.0585
     27 C         137.9767  138.5727  166.3752 C.3     1  UNL1        0.1824
     28 F         137.4162  138.6881  167.7617 F       1  UNL1       -0.2354
     29 C         138.1611  139.6992  165.4021 C.3     1  UNL1        0.1286
@<TRIPOS>BOND
     1     8     9    1
     2     9    10    2
     3     9    11   am
     4    11    12    1
     5    11     2    1
     6     2     3    1
     7     3     4    1
     8     4     5    1
     9     1     5    1
    10     1    13    1
    11    13    14    2
    12    13    15   am
    13    15    16    1
    14    15    17    1
    15     1    18    1
    16    18    19    1
    17    18    22    1
    18    22    23    2
    19    22    24   am
    20    24    25    1
    21    25    26    1
    22    26    27    1
    23    27    28    1
    24    27    29    1
    25     5     6    1
    26     6     7    1
    27     7     2    1
    28    29    24    1
    29    19    20    1
    30    19    21    1
@<TRIPOS>MOLECULE
*****
 29 30 0 0 0
SMALL
GASTEIGER

@<TRIPOS>ATOM
      1 C         139.0265  142.2101  163.7683 C.3     1  UNL1        0.0997
      2 C         140.4404  140.5765  167.7158 C.3     1  UNL1        0.0754
      3 C         140.5803  142.0396  167.4161 C.3     1  UNL1        0.0198
      4 C         140.1090  142.5841  166.1003 C.3     1  UNL1        0.0022
      5 C         139.4978  141.6656  165.0842 C.3     1  UNL1        0.0105
      6 C         139.3579  140.2025  165.3838 C.3     1  UNL1        0.0022
      7 C         139.8292  139.6580  166.6996 C.3     1  UNL1        0.0198
      8 C         142.7070  138.7884  170.4389 C.3     1  UNL1        0.0948
      9 C         142.2357  139.3330  169.1230 C.2     1  UNL1        0.2261
     10 O         143.0884  139.1783  167.8986 O.2     1  UNL1       -0.2749
     11 N         140.9118  140.0320  169.0316 N.am    1  UNL1       -0.2794
     12 C         140.0592  140.1866  170.2559 C.3     1  UNL1        0.1148
     13 C         138.1213  141.3896  162.8981 C.2     1  UNL1        0.2271
     14 O         136.6332  141.5439  163.0076 O.2     1  UNL1       -0.2748
     15 N         138.7041  140.4148  161.9182 N.am    1  UNL1       -0.2760
     16 C         137.7989  139.5943  161.0479 C.3     1  UNL1        0.1149
     17 C         140.1921  140.2605  161.8087 C.3     1  UNL1        0.1149
     18 C         139.4603  143.5751  163.3228 C.3     1  UNL1        0.1371
     19 N         138.7927  144.7950  163.8852 N.3     1  UNL1       -0.3146
     20 H         139.2097  145.6304  163.4747 H       1  UNL1        0.1192
     21 H         138.9177  144.8148  164.8973 H       1  UNL1        0.1192
     22 C         140.5617  143.7202  162.3149 C.2     1  UNL1        0.2402
     23 O         140.2422  143.7186  160.8493 O.2     1  UNL1       -0.2734
     24 N         141.9826  143.8670  162.7726 N.am    1  UNL1       -0.2756
     25 C         143.1830  144.0203  161.8863 C.3     1  UNL1        0.0964
     26 C         144.3949  144.1343  162.7628 C.3     1  UNL1        0.0585
     27 C         143.9435  144.0515  164.1909 C.3     1  UNL1        0.1824
     28 F         144.8277  144.1216  165.4006 F       1  UNL1       -0.2354
     29 C         142.4526  143.8863  164.1969 C.3     1  UNL1        0.1286
@<TRIPOS>BOND
     1     8     9    1
     2     9    10    2
     3     9    11   am
     4    11    12    1
     5    11     2    1
     6     2     3    1
     7     3     4    1
     8     4     5    1
     9     1     5    1
    10     1    13    1
    11    13    14    2
    12    13    15   am
    13    15    16    1
    14    15    17    1
    15     1    18    1
    16    18    19    1
    17    18    22    1
    18    22    23    2
    19    22    24   am
    20    24    25    1
    21    25    26    1
    22    26    27    1
    23    27    28    1
    24    27    29    1
    25     5     6    1
    26     6     7    1
    27     7     2    1
    28    29    24    1
    29    19    20    1
    30    19    21    1
