@<TRIPOS>MOLECULE
*****
 35 40 0 0 0
SMALL
GASTEIGER

@<TRIPOS>ATOM
      1 C         143.1797  139.1118  164.4964 C.ar    1  UNL1       -0.0065
      2 C         144.1659  140.1581  164.0693 C.ar    1  UNL1       -0.0032
      3 C         144.4470  140.3732  162.6117 C.ar    1  UNL1       -0.0026
      4 C         143.7419  139.5420  161.5812 C.ar    1  UNL1        0.0019
      5 C         142.7557  138.4957  162.0083 C.ar    1  UNL1       -0.0200
      6 C         142.4746  138.2805  163.4659 C.ar    1  UNL1       -0.0071
      7 C         142.2182  137.8341  160.7741 C.3     1  UNL1        0.0519
      8 C         142.8722  138.4715  159.5841 C.2     1  UNL1        0.0074
      9 C         142.9442  138.4566  158.0859 C.2     1  UNL1        0.0976
     10 N         143.9304  139.5029  157.6588 N.2     1  UNL1       -0.1526
     11 N         144.4680  140.1645  158.8931 N.2     1  UNL1       -0.1678
     12 C         143.8140  139.5271  160.0829 C.3     1  UNL1        0.1672
     13 C         142.1664  137.5537  157.1748 C.ar    1  UNL1        0.0265
     14 C         140.9015  137.9090  156.4510 C.ar    1  UNL1        0.0376
     15 S         140.4704  136.7120  155.6564 S.2     1  UNL1       -0.0780
     16 C         141.4688  135.6170  155.8892 C.ar    1  UNL1        0.0711
     17 C         142.5170  136.1372  156.8276 C.ar    1  UNL1        0.0168
     18 C         141.4265  134.2430  155.2889 C.1     1  UNL1       -0.0543
     19 C         141.3842  132.8690  154.6886 C.1     1  UNL1       -0.0388
     20 C         141.3418  131.4950  154.0883 C.3     1  UNL1        0.2814
     21 O         142.4548  130.5255  154.3550 O.3     1  UNL1       -0.4612
     22 C         143.2960  130.6700  155.5886 C.ar    1  UNL1        0.1400
     23 C         144.3356  131.7486  155.6653 C.ar    1  UNL1        0.0369
     24 C         145.1767  131.8932  156.8987 C.ar    1  UNL1        0.0031
     25 C         144.9782  130.9592  158.0556 C.ar    1  UNL1        0.0002
     26 C         143.9386  129.8807  157.9789 C.ar    1  UNL1        0.0031
     27 C         143.0975  129.7361  156.7454 C.ar    1  UNL1        0.0369
     28 C         142.8985  138.8966  165.9540 C.3     1  UNL1        0.0991
     29 C         140.4744  143.3044  169.2243 C.3     1  UNL1        0.0001
     30 C         141.0804  142.2025  168.4067 C.3     1  UNL1        0.0028
     31 C         142.1121  141.2986  169.0138 C.3     1  UNL1        0.0174
     32 C         142.7182  140.1966  168.1962 C.3     1  UNL1        0.0724
     33 N         142.2925  139.9985  166.7716 N.3     1  UNL1       -0.2690
     34 C         141.2607  140.9024  166.1646 C.3     1  UNL1        0.0724
     35 C         140.6547  142.0044  166.9821 C.3     1  UNL1        0.0174
@<TRIPOS>BOND
     1    29    30    1
     2    30    31    1
     3    31    32    1
     4    32    33    1
     5    33    28    1
     6    28     1    1
     7     1     2   ar
     8     2     3   ar
     9     3     4   ar
    10     4     5   ar
    11     5     6   ar
    12     5     7    1
    13     7     8    1
    14     8     9    2
    15     9    13    1
    16    13    14   ar
    17    14    15   ar
    18    15    16   ar
    19    16    18    1
    20    18    19    3
    21    19    20    1
    22    20    21    1
    23    21    22    1
    24    22    23   ar
    25    23    24   ar
    26    24    25   ar
    27    25    26   ar
    28    26    27   ar
    29    16    17   ar
    30     9    10    1
    31    10    11    2
    32    11    12    1
    33    33    34    1
    34    34    35    1
    35    35    30    1
    36     6     1   ar
    37    12     8    1
    38    12     4    1
    39    17    13   ar
    40    27    22   ar
@<TRIPOS>MOLECULE
*****
 35 40 0 0 0
SMALL
GASTEIGER

@<TRIPOS>ATOM
      1 C         141.9133  136.1033  155.0616 C.ar    1  UNL1       -0.0065
      2 C         140.9405  136.5719  154.0205 C.ar    1  UNL1       -0.0032
      3 C         139.8787  137.5682  154.3806 C.ar    1  UNL1       -0.0026
      4 C         139.7897  138.0961  155.7818 C.ar    1  UNL1        0.0019
      5 C         140.7625  137.6276  156.8230 C.ar    1  UNL1       -0.0200
      6 C         141.8243  136.6312  156.4629 C.ar    1  UNL1       -0.0071
      7 C         140.4312  138.3197  158.1118 C.3     1  UNL1        0.0519
      8 C         139.2536  139.2161  157.8672 C.2     1  UNL1        0.0074
      9 C         138.3211  140.1978  158.5126 C.2     1  UNL1        0.0976
     10 N         137.3482  140.6663  157.4714 N.2     1  UNL1       -0.1526
     11 N         137.6795  139.9742  156.1826 N.2     1  UNL1       -0.1678
     12 C         138.8571  139.0779  156.4272 C.3     1  UNL1        0.1672
     13 C         138.3554  140.6344  159.9473 C.ar    1  UNL1        0.0265
     14 C         138.5063  142.0444  160.4365 C.ar    1  UNL1        0.0376
     15 S         138.4890  142.0190  161.9361 S.2     1  UNL1       -0.0780
     16 C         138.3273  140.5934  162.3738 C.ar    1  UNL1        0.0711
     17 C         138.2447  139.7377  161.1446 C.ar    1  UNL1        0.0168
     18 C         138.2600  140.1086  163.7917 C.1     1  UNL1       -0.0543
     19 C         138.1926  139.6238  165.2096 C.1     1  UNL1       -0.0388
     20 C         138.1253  139.1390  166.6275 C.3     1  UNL1        0.2814
     21 O         139.3421  139.2074  167.5020 O.3     1  UNL1       -0.4612
     22 C         139.6773  140.4796  168.2226 C.ar    1  UNL1        0.1400
     23 C         139.2730  140.6586  169.6559 C.ar    1  UNL1        0.0369
     24 C         139.6081  141.9307  170.3765 C.ar    1  UNL1        0.0031
     25 C         140.3477  143.0239  169.6637 C.ar    1  UNL1        0.0002
     26 C         140.7520  142.8449  168.2304 C.ar    1  UNL1        0.0031
     27 C         140.4168  141.5727  167.5098 C.ar    1  UNL1        0.0369
     28 C         142.9752  135.1069  154.7016 C.3     1  UNL1        0.0991
     29 C         143.3224  129.8943  157.6524 C.3     1  UNL1        0.0001
     30 C         143.2356  131.1974  156.9147 C.3     1  UNL1        0.0028
     31 C         144.1735  132.3169  157.2570 C.3     1  UNL1        0.0174
     32 C         144.0867  133.6201  156.5193 C.3     1  UNL1        0.0724
     33 N         143.0620  133.8038  155.4393 N.3     1  UNL1       -0.2690
     34 C         142.1241  132.6842  155.0971 C.3     1  UNL1        0.0724
     35 C         142.2109  131.3811  155.8348 C.3     1  UNL1        0.0174
@<TRIPOS>BOND
     1    29    30    1
     2    30    31    1
     3    31    32    1
     4    32    33    1
     5    33    28    1
     6    28     1    1
     7     1     2   ar
     8     2     3   ar
     9     3     4   ar
    10     4     5   ar
    11     5     6   ar
    12     5     7    1
    13     7     8    1
    14     8     9    2
    15     9    13    1
    16    13    14   ar
    17    14    15   ar
    18    15    16   ar
    19    16    18    1
    20    18    19    3
    21    19    20    1
    22    20    21    1
    23    21    22    1
    24    22    23   ar
    25    23    24   ar
    26    24    25   ar
    27    25    26   ar
    28    26    27   ar
    29    16    17   ar
    30     9    10    1
    31    10    11    2
    32    11    12    1
    33    33    34    1
    34    34    35    1
    35    35    30    1
    36     6     1   ar
    37    12     8    1
    38    12     4    1
    39    17    13   ar
    40    27    22   ar
@<TRIPOS>MOLECULE
*****
 35 40 0 0 0
SMALL
GASTEIGER

@<TRIPOS>ATOM
      1 C         140.0957  146.5846  155.4179 C.ar    1  UNL1       -0.0065
      2 C         141.4158  146.0224  154.9807 C.ar    1  UNL1       -0.0032
      3 C         142.2618  145.2532  155.9515 C.ar    1  UNL1       -0.0026
      4 C         141.7877  145.0461  157.3594 C.ar    1  UNL1        0.0019
      5 C         140.4676  145.6083  157.7966 C.ar    1  UNL1       -0.0200
      6 C         139.6216  146.3776  156.8259 C.ar    1  UNL1       -0.0071
      7 C         140.2639  145.2460  159.2379 C.3     1  UNL1        0.0519
      8 C         141.4582  144.4598  159.6914 C.2     1  UNL1        0.0074
      9 C         142.0703  143.7499  160.8625 C.2     1  UNL1        0.0976
     10 N         143.3904  143.1877  160.4253 N.2     1  UNL1       -0.1526
     11 N         143.5941  143.5501  158.9841 N.2     1  UNL1       -0.1678
     12 C         142.3999  144.3362  158.5305 C.3     1  UNL1        0.1672
     13 C         141.4681  143.6244  162.2306 C.ar    1  UNL1        0.0265
     14 C         141.0644  144.7599  163.1238 C.ar    1  UNL1        0.0376
     15 S         140.5106  144.1786  164.3908 S.2     1  UNL1       -0.0780
     16 C         140.5721  142.6839  164.2807 C.ar    1  UNL1        0.0711
     17 C         141.1638  142.3414  162.9456 C.ar    1  UNL1        0.0168
     18 C         140.1210  141.7037  165.3227 C.1     1  UNL1       -0.0543
     19 C         139.6700  140.7236  166.3648 C.1     1  UNL1       -0.0388
     20 C         139.2189  139.7434  167.4068 C.3     1  UNL1        0.2814
     21 O         139.4788  140.0190  168.8582 O.3     1  UNL1       -0.4612
     22 C         140.5954  140.9371  169.2591 C.ar    1  UNL1        0.1400
     23 C         141.9975  140.4136  169.3591 C.ar    1  UNL1        0.0369
     24 C         143.1140  141.3315  169.7600 C.ar    1  UNL1        0.0031
     25 C         142.8284  142.7730  170.0607 C.ar    1  UNL1        0.0002
     26 C         141.4263  143.2965  169.9606 C.ar    1  UNL1        0.0031
     27 C         140.3098  142.3786  169.5598 C.ar    1  UNL1        0.0369
     28 C         139.2496  147.3540  154.4471 C.3     1  UNL1        0.0991
     29 C         138.9805  153.3382  154.7882 C.3     1  UNL1        0.0001
     30 C         139.0478  151.8421  154.7029 C.3     1  UNL1        0.0028
     31 C         138.4916  151.0019  155.8140 C.3     1  UNL1        0.0174
     32 C         138.5589  149.5057  155.7288 C.3     1  UNL1        0.0724
     33 N         139.1823  148.8500  154.5324 N.3     1  UNL1       -0.2690
     34 C         139.7385  149.6903  153.4213 C.3     1  UNL1        0.0724
     35 C         139.6712  151.1864  153.5066 C.3     1  UNL1        0.0174
@<TRIPOS>BOND
     1    29    30    1
     2    30    31    1
     3    31    32    1
     4    32    33    1
     5    33    28    1
     6    28     1    1
     7     1     2   ar
     8     2     3   ar
     9     3     4   ar
    10     4     5   ar
    11     5     6   ar
    12     5     7    1
    13     7     8    1
    14     8     9    2
    15     9    13    1
    16    13    14   ar
    17    14    15   ar
    18    15    16   ar
    19    16    18    1
    20    18    19    3
    21    19    20    1
    22    20    21    1
    23    21    22    1
    24    22    23   ar
    25    23    24   ar
    26    24    25   ar
    27    25    26   ar
    28    26    27   ar
    29    16    17   ar
    30     9    10    1
    31    10    11    2
    32    11    12    1
    33    33    34    1
    34    34    35    1
    35    35    30    1
    36     6     1   ar
    37    12     8    1
    38    12     4    1
    39    17    13   ar
    40    27    22   ar
@<TRIPOS>MOLECULE
*****
 35 40 0 0 0
SMALL
GASTEIGER

@<TRIPOS>ATOM
      1 C         140.9544  143.3442  164.6377 C.ar    1  UNL1       -0.0065
      2 C         140.6742  144.7716  164.2718 C.ar    1  UNL1       -0.0032
      3 C         140.9284  145.2510  162.8734 C.ar    1  UNL1       -0.0026
      4 C         141.4629  144.3031  161.8411 C.ar    1  UNL1        0.0019
      5 C         141.7431  142.8757  162.2070 C.ar    1  UNL1       -0.0200
      6 C         141.4889  142.3963  163.6054 C.ar    1  UNL1       -0.0071
      7 C         142.2628  142.1775  160.9854 C.3     1  UNL1        0.0519
      8 C         142.3038  143.1733  159.8644 C.2     1  UNL1        0.0074
      9 C         142.6503  143.3572  158.4166 C.2     1  UNL1        0.0976
     10 N         142.3701  144.7846  158.0507 N.2     1  UNL1       -0.1526
     11 N         141.8504  145.4829  159.2723 N.2     1  UNL1       -0.1678
     12 C         141.8094  144.4871  160.3932 C.3     1  UNL1        0.1672
     13 C         143.1834  142.2994  157.4964 C.ar    1  UNL1        0.0265
     14 C         144.0536  142.5313  156.2968 C.ar    1  UNL1        0.0376
     15 S         144.3479  141.1992  155.6732 S.2     1  UNL1       -0.0780
     16 C         143.6597  140.1440  156.4874 C.ar    1  UNL1        0.0711
     17 C         142.9399  140.8240  157.6142 C.ar    1  UNL1        0.0168
     18 C         143.6864  138.6680  156.2215 C.1     1  UNL1       -0.0543
     19 C         143.7131  137.1920  155.9556 C.1     1  UNL1       -0.0388
     20 C         143.7399  135.7160  155.6898 C.3     1  UNL1        0.2814
     21 O         143.5922  134.7466  156.8249 O.3     1  UNL1       -0.4612
     22 C         144.0112  133.3170  156.6496 C.ar    1  UNL1        0.1400
     23 C         144.7279  132.6043  157.7580 C.ar    1  UNL1        0.0369
     24 C         145.1470  131.1748  157.5828 C.ar    1  UNL1        0.0031
     25 C         144.8494  130.4579  156.2992 C.ar    1  UNL1        0.0002
     26 C         144.1327  131.1706  155.1909 C.ar    1  UNL1        0.0031
     27 C         143.7136  132.6002  155.3661 C.ar    1  UNL1        0.0369
     28 C         140.7001  142.8646  166.0361 C.3     1  UNL1        0.0991
     29 C         137.4795  137.8877  166.9619 C.3     1  UNL1        0.0001
     30 C         138.2846  139.1319  166.7304 C.3     1  UNL1        0.0028
     31 C         139.2625  139.5963  167.7686 C.3     1  UNL1        0.0174
     32 C         140.0677  140.8406  167.5372 C.3     1  UNL1        0.0724
     33 N         139.8950  141.6204  166.2676 N.3     1  UNL1       -0.2690
     34 C         138.9170  141.1560  165.2293 C.3     1  UNL1        0.0724
     35 C         138.1118  139.9117  165.4608 C.3     1  UNL1        0.0174
@<TRIPOS>BOND
     1    29    30    1
     2    30    31    1
     3    31    32    1
     4    32    33    1
     5    33    28    1
     6    28     1    1
     7     1     2   ar
     8     2     3   ar
     9     3     4   ar
    10     4     5   ar
    11     5     6   ar
    12     5     7    1
    13     7     8    1
    14     8     9    2
    15     9    13    1
    16    13    14   ar
    17    14    15   ar
    18    15    16   ar
    19    16    18    1
    20    18    19    3
    21    19    20    1
    22    20    21    1
    23    21    22    1
    24    22    23   ar
    25    23    24   ar
    26    24    25   ar
    27    25    26   ar
    28    26    27   ar
    29    16    17   ar
    30     9    10    1
    31    10    11    2
    32    11    12    1
    33    33    34    1
    34    34    35    1
    35    35    30    1
    36     6     1   ar
    37    12     8    1
    38    12     4    1
    39    17    13   ar
    40    27    22   ar
@<TRIPOS>MOLECULE
*****
 35 40 0 0 0
SMALL
GASTEIGER

@<TRIPOS>ATOM
      1 C         138.3941  140.1241  164.9065 C.ar    1  UNL1       -0.0065
      2 C         138.2143  141.6107  164.8195 C.ar    1  UNL1       -0.0032
      3 C         138.2028  142.2877  163.4810 C.ar    1  UNL1       -0.0026
      4 C         138.3711  141.4781  162.2296 C.ar    1  UNL1        0.0019
      5 C         138.5509  139.9915  162.3166 C.ar    1  UNL1       -0.0200
      6 C         138.5624  139.3145  163.6550 C.ar    1  UNL1       -0.0071
      7 C         138.6926  139.4593  160.9213 C.3     1  UNL1        0.0519
      8 C         138.6003  140.6170  159.9720 C.2     1  UNL1        0.0074
      9 C         138.6308  141.0036  158.5230 C.2     1  UNL1        0.0976
     10 N         138.4510  142.4902  158.4360 N.2     1  UNL1       -0.1526
     11 N         138.3093  143.0224  159.8312 N.2     1  UNL1       -0.1678
     12 C         138.4016  141.8647  160.7805 C.3     1  UNL1        0.1672
     13 C         138.8097  140.0678  157.3644 C.ar    1  UNL1        0.0265
     14 C         138.2229  140.2384  155.9945 C.ar    1  UNL1        0.0376
     15 S         138.6574  139.0732  155.1558 S.2     1  UNL1       -0.0780
     16 C         139.5127  138.1824  156.0073 C.ar    1  UNL1        0.0711
     17 C         139.6068  138.7972  157.3723 C.ar    1  UNL1        0.0168
     18 C         140.1602  136.9019  155.5705 C.1     1  UNL1       -0.0543
     19 C         140.8077  135.6212  155.1337 C.1     1  UNL1       -0.0388
     20 C         141.4552  134.3406  154.6969 C.3     1  UNL1        0.2814
     21 O         141.3339  133.1108  155.5471 O.3     1  UNL1       -0.4612
     22 C         142.4815  132.1497  155.6438 C.ar    1  UNL1        0.1400
     23 C         143.0143  131.7506  156.9880 C.ar    1  UNL1        0.0369
     24 C         144.1619  130.7895  157.0848 C.ar    1  UNL1        0.0031
     25 C         144.7767  130.2276  155.8374 C.ar    1  UNL1        0.0002
     26 C         144.2440  130.6267  154.4932 C.ar    1  UNL1        0.0031
     27 C         143.0964  131.5878  154.3964 C.ar    1  UNL1        0.0369
     28 C         138.4057  139.4471  166.2450 C.3     1  UNL1        0.0991
     29 C         142.9331  140.4198  170.0601 C.3     1  UNL1        0.0001
     30 C         141.8013  140.1766  169.1064 C.3     1  UNL1        0.0028
     31 C         142.0864  139.8840  167.6631 C.3     1  UNL1        0.0174
     32 C         140.9546  139.6408  166.7093 C.3     1  UNL1        0.0724
     33 N         139.5375  139.6902  167.1988 N.3     1  UNL1       -0.2690
     34 C         139.2524  139.9829  168.6421 C.3     1  UNL1        0.0724
     35 C         140.3843  140.2260  169.5959 C.3     1  UNL1        0.0174
@<TRIPOS>BOND
     1    29    30    1
     2    30    31    1
     3    31    32    1
     4    32    33    1
     5    33    28    1
     6    28     1    1
     7     1     2   ar
     8     2     3   ar
     9     3     4   ar
    10     4     5   ar
    11     5     6   ar
    12     5     7    1
    13     7     8    1
    14     8     9    2
    15     9    13    1
    16    13    14   ar
    17    14    15   ar
    18    15    16   ar
    19    16    18    1
    20    18    19    3
    21    19    20    1
    22    20    21    1
    23    21    22    1
    24    22    23   ar
    25    23    24   ar
    26    24    25   ar
    27    25    26   ar
    28    26    27   ar
    29    16    17   ar
    30     9    10    1
    31    10    11    2
    32    11    12    1
    33    33    34    1
    34    34    35    1
    35    35    30    1
    36     6     1   ar
    37    12     8    1
    38    12     4    1
    39    17    13   ar
    40    27    22   ar
@<TRIPOS>MOLECULE
*****
 35 40 0 0 0
SMALL
GASTEIGER

@<TRIPOS>ATOM
      1 C         143.0587  142.9650  164.8683 C.ar    1  UNL1       -0.0065
      2 C         143.4714  144.3503  164.4679 C.ar    1  UNL1       -0.0032
      3 C         143.0477  144.9048  163.1402 C.ar    1  UNL1       -0.0026
      4 C         142.2112  144.0739  162.2128 C.ar    1  UNL1        0.0019
      5 C         141.7985  142.6886  162.6132 C.ar    1  UNL1       -0.0200
      6 C         142.2222  142.1341  163.9410 C.ar    1  UNL1       -0.0071
      7 C         140.9790  142.1088  161.4987 C.3     1  UNL1        0.0519
      8 C         140.8852  143.1358  160.4094 C.2     1  UNL1        0.0074
      9 C         140.3208  143.4121  159.0474 C.2     1  UNL1        0.0976
     10 N         140.7336  144.7975  158.6470 N.2     1  UNL1       -0.1526
     11 N         141.5531  145.3773  159.7616 N.2     1  UNL1       -0.1678
     12 C         141.6468  144.3504  160.8508 C.3     1  UNL1        0.1672
     13 C         139.4896  142.4687  158.2295 C.ar    1  UNL1        0.0265
     14 C         139.8594  141.0633  157.8577 C.ar    1  UNL1        0.0376
     15 S         138.7410  140.4911  157.0382 S.2     1  UNL1       -0.0780
     16 C         137.6800  141.5428  156.9033 C.ar    1  UNL1        0.0711
     17 C         138.1427  142.7650  157.6396 C.ar    1  UNL1        0.0168
     18 C         136.3839  141.3978  156.1624 C.1     1  UNL1       -0.0543
     19 C         135.0877  141.2527  155.4214 C.1     1  UNL1       -0.0388
     20 C         133.7917  141.1077  154.6804 C.3     1  UNL1        0.2814
     21 O         132.5002  141.4750  155.3492 O.3     1  UNL1       -0.4612
     22 C         131.8180  140.4921  156.2539 C.ar    1  UNL1        0.1400
     23 C         132.6324  139.5211  157.0565 C.ar    1  UNL1        0.0369
     24 C         131.9503  138.5382  157.9612 C.ar    1  UNL1        0.0031
     25 C         130.4538  138.5262  158.0633 C.ar    1  UNL1        0.0002
     26 C         129.6395  139.4971  157.2608 C.ar    1  UNL1        0.0031
     27 C         130.3216  140.4801  156.3561 C.ar    1  UNL1        0.0369
     28 C         143.4824  142.4104  166.1961 C.3     1  UNL1        0.0991
     29 C         139.3684  140.2780  170.0076 C.3     1  UNL1        0.0001
     30 C         140.3969  140.8111  169.0547 C.3     1  UNL1        0.0028
     31 C         140.3102  142.2293  168.5741 C.3     1  UNL1        0.0174
     32 C         141.3388  142.7625  167.6211 C.3     1  UNL1        0.0724
     33 N         142.4539  141.8773  167.1490 N.3     1  UNL1       -0.2690
     34 C         142.5406  140.4590  167.6297 C.3     1  UNL1        0.0724
     35 C         141.5121  139.9260  168.5826 C.3     1  UNL1        0.0174
@<TRIPOS>BOND
     1    29    30    1
     2    30    31    1
     3    31    32    1
     4    32    33    1
     5    33    28    1
     6    28     1    1
     7     1     2   ar
     8     2     3   ar
     9     3     4   ar
    10     4     5   ar
    11     5     6   ar
    12     5     7    1
    13     7     8    1
    14     8     9    2
    15     9    13    1
    16    13    14   ar
    17    14    15   ar
    18    15    16   ar
    19    16    18    1
    20    18    19    3
    21    19    20    1
    22    20    21    1
    23    21    22    1
    24    22    23   ar
    25    23    24   ar
    26    24    25   ar
    27    25    26   ar
    28    26    27   ar
    29    16    17   ar
    30     9    10    1
    31    10    11    2
    32    11    12    1
    33    33    34    1
    34    34    35    1
    35    35    30    1
    36     6     1   ar
    37    12     8    1
    38    12     4    1
    39    17    13   ar
    40    27    22   ar
@<TRIPOS>MOLECULE
*****
 35 40 0 0 0
SMALL
GASTEIGER

@<TRIPOS>ATOM
      1 C         144.0158  139.5489  163.5343 C.ar    1  UNL1       -0.0065
      2 C         144.3800  140.8578  162.8987 C.ar    1  UNL1       -0.0032
      3 C         144.2517  141.0322  161.4144 C.ar    1  UNL1       -0.0026
      4 C         143.7592  139.8977  160.5657 C.ar    1  UNL1        0.0019
      5 C         143.3950  138.5887  161.2013 C.ar    1  UNL1       -0.0200
      6 C         143.5233  138.4143  162.6856 C.ar    1  UNL1       -0.0071
      7 C         142.9416  137.6571  160.1167 C.3     1  UNL1        0.0519
      8 C         143.0255  138.3902  158.8108 C.2     1  UNL1        0.0074
      9 C         142.7972  138.2675  157.3333 C.2     1  UNL1        0.0976
     10 N         143.1614  139.5764  156.6978 N.2     1  UNL1       -0.1526
     11 N         143.6148  140.5081  157.7824 N.2     1  UNL1       -0.1678
     12 C         143.5308  139.7750  159.0882 C.3     1  UNL1        0.1672
     13 C         142.2932  137.0496  156.6172 C.ar    1  UNL1        0.0265
     14 C         141.2355  137.0267  155.5538 C.ar    1  UNL1        0.0376
     15 S         141.0470  135.6038  155.1182 S.2     1  UNL1       -0.0780
     16 C         141.9881  134.7473  155.9124 C.ar    1  UNL1        0.0711
     17 C         142.7583  135.6409  156.8388 C.ar    1  UNL1        0.0168
     18 C         142.1336  133.2587  155.7998 C.1     1  UNL1       -0.0543
     19 C         142.2790  131.7699  155.6873 C.1     1  UNL1       -0.0388
     20 C         142.4244  130.2813  155.5748 C.3     1  UNL1        0.2814
     21 O         143.5196  129.5763  156.3188 O.3     1  UNL1       -0.4612
     22 C         143.1978  128.7749  157.5453 C.ar    1  UNL1        0.1400
     23 C         143.9113  129.0571  158.8342 C.ar    1  UNL1        0.0369
     24 C         143.5895  128.2558  160.0607 C.ar    1  UNL1        0.0031
     25 C         142.5541  127.1722  159.9982 C.ar    1  UNL1        0.0002
     26 C         141.8406  126.8900  158.7093 C.ar    1  UNL1        0.0031
     27 C         142.1624  127.6914  157.4829 C.ar    1  UNL1        0.0369
     28 C         144.1441  139.3744  165.0186 C.3     1  UNL1        0.0991
     29 C         139.3720  140.2012  168.5601 C.3     1  UNL1        0.0001
     30 C         140.5650  139.9945  167.6748 C.3     1  UNL1        0.0028
     31 C         140.4602  140.2570  166.2017 C.3     1  UNL1        0.0174
     32 C         141.6533  140.0503  165.3162 C.3     1  UNL1        0.0724
     33 N         142.9511  139.5811  165.9040 N.3     1  UNL1       -0.2690
     34 C         143.0559  139.3186  167.3771 C.3     1  UNL1        0.0724
     35 C         141.8628  139.5252  168.2625 C.3     1  UNL1        0.0174
@<TRIPOS>BOND
     1    29    30    1
     2    30    31    1
     3    31    32    1
     4    32    33    1
     5    33    28    1
     6    28     1    1
     7     1     2   ar
     8     2     3   ar
     9     3     4   ar
    10     4     5   ar
    11     5     6   ar
    12     5     7    1
    13     7     8    1
    14     8     9    2
    15     9    13    1
    16    13    14   ar
    17    14    15   ar
    18    15    16   ar
    19    16    18    1
    20    18    19    3
    21    19    20    1
    22    20    21    1
    23    21    22    1
    24    22    23   ar
    25    23    24   ar
    26    24    25   ar
    27    25    26   ar
    28    26    27   ar
    29    16    17   ar
    30     9    10    1
    31    10    11    2
    32    11    12    1
    33    33    34    1
    34    34    35    1
    35    35    30    1
    36     6     1   ar
    37    12     8    1
    38    12     4    1
    39    17    13   ar
    40    27    22   ar
@<TRIPOS>MOLECULE
*****
 35 40 0 0 0
SMALL
GASTEIGER

@<TRIPOS>ATOM
      1 C         139.9340  146.0522  155.7231 C.ar    1  UNL1       -0.0065
      2 C         140.8577  145.1678  154.9391 C.ar    1  UNL1       -0.0032
      3 C         141.8617  144.3119  155.6527 C.ar    1  UNL1       -0.0026
      4 C         141.9421  144.3403  157.1503 C.ar    1  UNL1        0.0019
      5 C         141.0185  145.2247  157.9343 C.ar    1  UNL1       -0.0200
      6 C         140.0144  146.0807  157.2207 C.ar    1  UNL1       -0.0071
      7 C         141.3286  145.0436  159.3906 C.3     1  UNL1        0.0519
      8 C         142.4439  144.0473  159.5067 C.2     1  UNL1        0.0074
      9 C         143.3247  143.3196  160.4786 C.2     1  UNL1        0.0976
     10 N         144.2484  142.4352  159.6946 N.2     1  UNL1       -0.1526
     11 N         143.9383  142.6163  158.2382 N.2     1  UNL1       -0.1678
     12 C         142.8231  143.6126  158.1221 C.3     1  UNL1        0.1672
     13 C         143.2884  143.4529  161.9722 C.ar    1  UNL1        0.0265
     14 C         144.2399  144.2555  162.8092 C.ar    1  UNL1        0.0376
     15 S         143.8337  144.1057  164.2453 S.2     1  UNL1       -0.0780
     16 C         142.6312  143.2105  164.2960 C.ar    1  UNL1        0.0711
     17 C         142.2942  142.8070  162.8911 C.ar    1  UNL1        0.0168
     18 C         141.8949  142.7921  165.5340 C.1     1  UNL1       -0.0543
     19 C         141.1586  142.3737  166.7722 C.1     1  UNL1       -0.0388
     20 C         140.4223  141.9554  168.0103 C.3     1  UNL1        0.2814
     21 O         139.6236  140.6858  168.0149 O.3     1  UNL1       -0.4612
     22 C         139.7680  139.7047  166.8894 C.ar    1  UNL1        0.1400
     23 C         138.5475  139.1121  166.2498 C.ar    1  UNL1        0.0369
     24 C         138.6918  138.1310  165.1244 C.ar    1  UNL1        0.0031
     25 C         140.0567  137.7426  164.6385 C.ar    1  UNL1        0.0002
     26 C         141.2773  138.3353  165.2781 C.ar    1  UNL1        0.0031
     27 C         141.1329  139.3163  166.4035 C.ar    1  UNL1        0.0369
     28 C         138.9299  146.9082  155.0096 C.3     1  UNL1        0.0991
     29 C         140.1226  152.6953  153.9671 C.3     1  UNL1        0.0001
     30 C         139.8244  151.2486  154.2277 C.3     1  UNL1        0.0028
     31 C         138.9863  150.8564  155.4082 C.3     1  UNL1        0.0174
     32 C         138.6881  149.4096  155.6689 C.3     1  UNL1        0.0724
     33 N         139.2281  148.3550  154.7490 N.3     1  UNL1       -0.2690
     34 C         140.0663  148.7472  153.5684 C.3     1  UNL1        0.0724
     35 C         140.3644  150.1940  153.3078 C.3     1  UNL1        0.0174
@<TRIPOS>BOND
     1    29    30    1
     2    30    31    1
     3    31    32    1
     4    32    33    1
     5    33    28    1
     6    28     1    1
     7     1     2   ar
     8     2     3   ar
     9     3     4   ar
    10     4     5   ar
    11     5     6   ar
    12     5     7    1
    13     7     8    1
    14     8     9    2
    15     9    13    1
    16    13    14   ar
    17    14    15   ar
    18    15    16   ar
    19    16    18    1
    20    18    19    3
    21    19    20    1
    22    20    21    1
    23    21    22    1
    24    22    23   ar
    25    23    24   ar
    26    24    25   ar
    27    25    26   ar
    28    26    27   ar
    29    16    17   ar
    30     9    10    1
    31    10    11    2
    32    11    12    1
    33    33    34    1
    34    34    35    1
    35    35    30    1
    36     6     1   ar
    37    12     8    1
    38    12     4    1
    39    17    13   ar
    40    27    22   ar
@<TRIPOS>MOLECULE
*****
 35 40 0 0 0
SMALL
GASTEIGER

@<TRIPOS>ATOM
      1 C         144.4833  142.0231  155.7973 C.ar    1  UNL1       -0.0065
      2 C         143.7091  143.0602  155.0391 C.ar    1  UNL1       -0.0032
      3 C         142.7009  143.9127  155.7510 C.ar    1  UNL1       -0.0026
      4 C         142.4669  143.7280  157.2211 C.ar    1  UNL1        0.0019
      5 C         143.2412  142.6908  157.9793 C.ar    1  UNL1       -0.0200
      6 C         144.2494  141.8384  157.2674 C.ar    1  UNL1       -0.0071
      7 C         142.7983  142.7370  159.4116 C.3     1  UNL1        0.0519
      8 C         141.7504  143.8027  159.5388 C.2     1  UNL1        0.0074
      9 C         140.8291  144.4898  160.5026 C.2     1  UNL1        0.0976
     10 N         140.0548  145.5270  159.7444 N.2     1  UNL1       -0.1526
     11 N         140.4977  145.4808  158.3120 N.2     1  UNL1       -0.1678
     12 C         141.5456  144.4152  158.1849 C.3     1  UNL1        0.1672
     13 C         140.7039  144.1921  161.9674 C.ar    1  UNL1        0.0265
     14 C         140.9623  145.1552  163.0881 C.ar    1  UNL1        0.0376
     15 S         140.7165  144.4373  164.3820 S.2     1  UNL1       -0.0780
     16 C         140.3063  143.0306  164.0611 C.ar    1  UNL1        0.0711
     17 C         140.2986  142.8791  162.5688 C.ar    1  UNL1        0.0168
     18 C         139.9640  141.9629  165.0574 C.1     1  UNL1       -0.0543
     19 C         139.6217  140.8951  166.0539 C.1     1  UNL1       -0.0388
     20 C         139.2794  139.8275  167.0502 C.3     1  UNL1        0.2814
     21 O         139.4757  140.0787  168.5160 O.3     1  UNL1       -0.4612
     22 C         140.5866  140.9727  168.9815 C.ar    1  UNL1        0.1400
     23 C         142.0006  140.4721  168.9851 C.ar    1  UNL1        0.0369
     24 C         143.1115  141.3660  169.4506 C.ar    1  UNL1        0.0031
     25 C         142.8084  142.7605  169.9126 C.ar    1  UNL1        0.0002
     26 C         141.3944  143.2611  169.9090 C.ar    1  UNL1        0.0031
     27 C         140.2835  142.3672  169.4435 C.ar    1  UNL1        0.0369
     28 C         145.4916  141.1706  155.0854 C.3     1  UNL1        0.0991
     29 C         150.5129  143.6393  152.9194 C.3     1  UNL1        0.0001
     30 C         149.2576  143.0222  153.4609 C.3     1  UNL1        0.0028
     31 C         149.3046  142.2088  154.7203 C.3     1  UNL1        0.0174
     32 C         148.0492  141.5916  155.2619 C.3     1  UNL1        0.0724
     33 N         146.7469  141.7878  154.5439 N.3     1  UNL1       -0.2690
     34 C         146.6999  142.6011  153.2844 C.3     1  UNL1        0.0724
     35 C         147.9553  143.2183  152.7429 C.3     1  UNL1        0.0174
@<TRIPOS>BOND
     1    29    30    1
     2    30    31    1
     3    31    32    1
     4    32    33    1
     5    33    28    1
     6    28     1    1
     7     1     2   ar
     8     2     3   ar
     9     3     4   ar
    10     4     5   ar
    11     5     6   ar
    12     5     7    1
    13     7     8    1
    14     8     9    2
    15     9    13    1
    16    13    14   ar
    17    14    15   ar
    18    15    16   ar
    19    16    18    1
    20    18    19    3
    21    19    20    1
    22    20    21    1
    23    21    22    1
    24    22    23   ar
    25    23    24   ar
    26    24    25   ar
    27    25    26   ar
    28    26    27   ar
    29    16    17   ar
    30     9    10    1
    31    10    11    2
    32    11    12    1
    33    33    34    1
    34    34    35    1
    35    35    30    1
    36     6     1   ar
    37    12     8    1
    38    12     4    1
    39    17    13   ar
    40    27    22   ar
