@<TRIPOS>MOLECULE
*****
 35 39 0 0 0
SMALL
GASTEIGER

@<TRIPOS>ATOM
      1 N         138.9284  144.2819  163.3714 N.3     1  UNL1       -0.2720
      2 C         138.1524  143.0944  162.8837 C.3     1  UNL1        0.0768
      3 C         137.9743  141.7587  163.5427 C.3     1  UNL1        0.0434
      4 C         138.5283  141.2806  164.8520 C.ar    1  UNL1       -0.0231
      5 C         138.1074  139.8705  165.1429 C.ar    1  UNL1       -0.0013
      6 C         138.5554  139.1999  166.4076 C.ar    1  UNL1        0.0388
      7 C         139.4242  139.9393  167.3815 C.ar    1  UNL1        0.1643
      8 O         140.0172  139.5414  168.7006 O.2     1  UNL1       -0.4317
      9 C         140.8045  140.7055  169.2250 C.ar    1  UNL1        0.3031
     10 N         140.6982  141.8230  168.2299 N.ar    1  UNL1       -0.2053
     11 C         139.8451  141.3494  167.0906 C.ar    1  UNL1        0.1145
     12 C         139.3971  142.0200  165.8259 C.ar    1  UNL1       -0.0039
     13 C         139.9266  143.4202  165.7308 C.3     1  UNL1        0.0450
     14 C         139.7179  144.4268  164.6385 C.3     1  UNL1        0.0769
     15 C         141.5648  140.7453  170.5174 C.3     1  UNL1        0.4696
     16 F         142.3252  140.7851  171.8098 F       1  UNL1       -0.1619
     17 F         140.3231  140.3493  171.2600 F       1  UNL1       -0.1619
     18 F         142.8065  141.1413  169.7748 F       1  UNL1       -0.1619
     19 C         138.9127  145.4831  162.4732 C.3     1  UNL1        0.0730
     20 C         140.1082  145.8010  161.6249 C.3     1  UNL1        0.0294
     21 C         140.2945  145.1147  160.3041 C.3     1  UNL1        0.0666
     22 S         141.5647  144.3697  160.0187 S.3     1  UNL1       -0.0756
     23 C         143.1150  142.1931  162.8338 C.ar    1  UNL1        0.1740
     24 N         143.9654  143.4259  162.9189 N.ar    1  UNL1       -0.1277
     25 N         143.4882  144.3912  161.8747 N.ar    1  UNL1       -0.1221
     26 C         142.3428  143.7551  161.1442 C.ar    1  UNL1        0.1932
     27 N         142.1122  142.3967  161.7370 N.ar    1  UNL1       -0.2880
     28 C         141.0629  141.4142  161.3082 C.3     1  UNL1        0.1340
     29 C         143.0619  138.9650  167.0120 C.3     1  UNL1        0.0594
     30 C         143.2202  139.4877  165.6149 C.ar    1  UNL1        0.0883
     31 N         143.6680  138.6953  164.4226 N.ar    1  UNL1       -0.2469
     32 C         143.6831  139.6123  163.2357 C.ar    1  UNL1        0.0685
     33 C         144.0689  139.2363  161.8358 C.3     1  UNL1        0.0527
     34 C         143.2446  140.9715  163.6943 C.ar    1  UNL1        0.0799
     35 S         142.9585  140.8944  165.1648 S.2     1  UNL1       -0.0680
@<TRIPOS>BOND
     1    29    30    1
     2    30    31   ar
     3    31    32   ar
     4    32    33    1
     5    32    34   ar
     6    34    23    1
     7    23    24   ar
     8    24    25   ar
     9    25    26   ar
    10    26    22    1
    11    22    21    1
    12    21    20    1
    13    20    19    1
    14    19     1    1
    15     1     2    1
    16     2     3    1
    17     3     4    1
    18     4     5   ar
    19     5     6   ar
    20     6     7   ar
    21     7     8   ar
    22     8     9   ar
    23     9    15    1
    24    15    16    1
    25    15    17    1
    26    15    18    1
    27     9    10   ar
    28    10    11   ar
    29    11    12   ar
    30    12    13    1
    31    13    14    1
    32    26    27   ar
    33    27    28    1
    34    34    35   ar
    35    35    30   ar
    36    27    23   ar
    37    14     1    1
    38    12     4   ar
    39    11     7   ar
@<TRIPOS>MOLECULE
*****
 35 39 0 0 0
SMALL
GASTEIGER

@<TRIPOS>ATOM
      1 N         144.1001  142.2262  162.5301 N.3     1  UNL1       -0.2720
      2 C         144.5921  140.8183  162.6910 C.3     1  UNL1        0.0768
      3 C         144.3818  139.8800  163.8424 C.3     1  UNL1        0.0434
      4 C         143.6277  140.1179  165.1169 C.ar    1  UNL1       -0.0231
      5 C         143.6617  138.9111  166.0072 C.ar    1  UNL1       -0.0013
      6 C         142.9655  138.9391  167.3355 C.ar    1  UNL1        0.0388
      7 C         142.2354  140.1740  167.7738 C.ar    1  UNL1        0.1643
      8 O         141.4627  140.4945  169.0188 O.2     1  UNL1       -0.4317
      9 C         140.9512  141.8994  168.8981 C.ar    1  UNL1        0.3031
     10 N         141.4077  142.4472  167.5784 N.ar    1  UNL1       -0.2053
     11 C         142.2014  141.3808  166.8835 C.ar    1  UNL1        0.1145
     12 C         142.8975  141.3527  165.5552 C.ar    1  UNL1       -0.0039
     13 C         142.7412  142.6548  164.8269 C.3     1  UNL1        0.0450
     14 C         143.2764  143.0434  163.4806 C.3     1  UNL1        0.0769
     15 C         140.1277  142.6286  169.9180 C.3     1  UNL1        0.4696
     16 F         139.3043  143.3579  170.9379 F       1  UNL1       -0.1619
     17 F         139.2252  141.4369  170.0413 F       1  UNL1       -0.1619
     18 F         141.0303  143.8203  169.7947 F       1  UNL1       -0.1619
     19 C         144.4824  142.9067  161.2492 C.3     1  UNL1        0.0730
     20 C         143.6216  142.7503  160.0308 C.3     1  UNL1        0.0294
     21 C         142.4251  143.6346  159.8393 C.3     1  UNL1        0.0666
     22 S         141.0791  143.0282  159.5741 S.3     1  UNL1       -0.0756
     23 C         139.1701  141.5560  162.6161 C.ar    1  UNL1        0.1740
     24 N         138.3685  142.7941  162.3424 N.ar    1  UNL1       -0.1277
     25 N         138.9861  143.4962  161.1696 N.ar    1  UNL1       -0.1221
     26 C         140.1693  142.6921  160.7184 C.ar    1  UNL1        0.1932
     27 N         140.2830  141.4931  161.6124 N.ar    1  UNL1       -0.2880
     28 C         141.3264  140.4194  161.5191 C.3     1  UNL1        0.1340
     29 C         138.5963  139.3495  167.3788 C.3     1  UNL1        0.0594
     30 C         138.6414  139.5423  165.8919 C.ar    1  UNL1        0.0883
     31 N         138.3536  138.4945  164.8578 N.ar    1  UNL1       -0.2469
     32 C         138.5166  139.1213  163.5049 C.ar    1  UNL1        0.0685
     33 C         138.3247  138.4337  162.1857 C.3     1  UNL1        0.0527
     34 C         138.9052  140.5565  163.7027 C.ar    1  UNL1        0.0799
     35 S         138.9823  140.8167  165.1780 S.2     1  UNL1       -0.0680
@<TRIPOS>BOND
     1    29    30    1
     2    30    31   ar
     3    31    32   ar
     4    32    33    1
     5    32    34   ar
     6    34    23    1
     7    23    24   ar
     8    24    25   ar
     9    25    26   ar
    10    26    22    1
    11    22    21    1
    12    21    20    1
    13    20    19    1
    14    19     1    1
    15     1     2    1
    16     2     3    1
    17     3     4    1
    18     4     5   ar
    19     5     6   ar
    20     6     7   ar
    21     7     8   ar
    22     8     9   ar
    23     9    15    1
    24    15    16    1
    25    15    17    1
    26    15    18    1
    27     9    10   ar
    28    10    11   ar
    29    11    12   ar
    30    12    13    1
    31    13    14    1
    32    26    27   ar
    33    27    28    1
    34    34    35   ar
    35    35    30   ar
    36    27    23   ar
    37    14     1    1
    38    12     4   ar
    39    11     7   ar
@<TRIPOS>MOLECULE
*****
 35 39 0 0 0
SMALL
GASTEIGER

@<TRIPOS>ATOM
      1 N         139.8184  144.5617  159.5589 N.3     1  UNL1       -0.2720
      2 C         139.9901  145.6841  160.5392 C.3     1  UNL1        0.0768
      3 C         139.9282  145.6351  162.0372 C.3     1  UNL1        0.0434
      4 C         139.6793  144.4519  162.9247 C.ar    1  UNL1       -0.0231
      5 C         139.6994  144.8397  164.3736 C.ar    1  UNL1       -0.0013
      6 C         139.4710  143.8009  165.4313 C.ar    1  UNL1        0.0388
      7 C         139.2226  142.3742  165.0402 C.ar    1  UNL1        0.1643
      8 O         138.9671  141.1404  165.8539 O.2     1  UNL1       -0.4317
      9 C         138.7890  139.9899  164.9080 C.ar    1  UNL1        0.3031
     10 N         138.9346  140.5127  163.5096 N.ar    1  UNL1       -0.2053
     11 C         139.2025  141.9864  163.5913 C.ar    1  UNL1        0.1145
     12 C         139.4309  143.0252  162.5336 C.ar    1  UNL1       -0.0039
     13 C         139.3700  142.4295  161.1583 C.3     1  UNL1        0.0450
     14 C         139.5425  143.1134  159.8344 C.3     1  UNL1        0.0769
     15 C         138.5138  138.5665  165.2928 C.3     1  UNL1        0.4696
     16 F         138.2386  137.1430  165.6775 F       1  UNL1       -0.1619
     17 F         137.7334  139.0392  166.4833 F       1  UNL1       -0.1619
     18 F         139.2942  138.0937  164.1022 F       1  UNL1       -0.1619
     19 C         139.9387  144.9376  158.1117 C.3     1  UNL1        0.0730
     20 C         141.0773  144.4081  157.2914 C.3     1  UNL1        0.0294
     21 C         142.4831  144.5116  157.8045 C.3     1  UNL1        0.0666
     22 S         143.1691  143.2998  158.3620 S.3     1  UNL1       -0.0756
     23 C         143.3172  141.9594  162.0017 C.ar    1  UNL1        0.1740
     24 N         143.0852  143.4221  162.2406 N.ar    1  UNL1       -0.1277
     25 N         143.0015  144.1021  160.9062 N.ar    1  UNL1       -0.1221
     26 C         143.1818  143.0598  159.8426 C.ar    1  UNL1        0.1932
     27 N         143.3769  141.7357  160.5197 N.ar    1  UNL1       -0.2880
     28 C         143.5936  140.4187  159.8349 C.3     1  UNL1        0.1340
     29 C         142.2994  137.8993  165.2204 C.3     1  UNL1        0.0594
     30 C         142.9959  139.0395  164.5386 C.ar    1  UNL1        0.0883
     31 N         144.3827  139.5289  164.8340 N.ar    1  UNL1       -0.2469
     32 C         144.6719  140.6823  163.9196 C.ar    1  UNL1        0.0685
     33 C         145.9454  141.4734  163.8738 C.3     1  UNL1        0.0527
     34 C         143.4638  140.9058  163.0590 C.ar    1  UNL1        0.0799
     35 S         142.4280  139.8904  163.4416 S.2     1  UNL1       -0.0680
@<TRIPOS>BOND
     1    29    30    1
     2    30    31   ar
     3    31    32   ar
     4    32    33    1
     5    32    34   ar
     6    34    23    1
     7    23    24   ar
     8    24    25   ar
     9    25    26   ar
    10    26    22    1
    11    22    21    1
    12    21    20    1
    13    20    19    1
    14    19     1    1
    15     1     2    1
    16     2     3    1
    17     3     4    1
    18     4     5   ar
    19     5     6   ar
    20     6     7   ar
    21     7     8   ar
    22     8     9   ar
    23     9    15    1
    24    15    16    1
    25    15    17    1
    26    15    18    1
    27     9    10   ar
    28    10    11   ar
    29    11    12   ar
    30    12    13    1
    31    13    14    1
    32    26    27   ar
    33    27    28    1
    34    34    35   ar
    35    35    30   ar
    36    27    23   ar
    37    14     1    1
    38    12     4   ar
    39    11     7   ar
@<TRIPOS>MOLECULE
*****
 35 39 0 0 0
SMALL
GASTEIGER

@<TRIPOS>ATOM
      1 N         142.6890  138.2176  162.7656 N.3     1  UNL1       -0.2720
      2 C         141.3639  137.5708  162.4899 C.3     1  UNL1        0.0768
      3 C         140.1330  137.5581  163.3471 C.3     1  UNL1        0.0434
      4 C         139.9232  138.1890  164.6916 C.ar    1  UNL1       -0.0231
      5 C         138.5367  137.9360  165.2053 C.ar    1  UNL1       -0.0013
      6 C         138.1195  138.4824  166.5385 C.ar    1  UNL1        0.0388
      7 C         139.0886  139.2819  167.3580 C.ar    1  UNL1        0.1643
      8 O         138.9633  139.9428  168.6987 O.2     1  UNL1       -0.4317
      9 C         140.2722  140.6042  169.0137 C.ar    1  UNL1        0.3031
     10 N         141.2066  140.3522  167.8676 N.ar    1  UNL1       -0.2053
     11 C         140.4751  139.5349  166.8443 C.ar    1  UNL1        0.1145
     12 C         140.8923  138.9885  165.5112 C.ar    1  UNL1       -0.0039
     13 C         142.3107  139.3545  165.1885 C.3     1  UNL1        0.0450
     14 C         143.1103  139.0114  163.9665 C.3     1  UNL1        0.0769
     15 C         140.5909  141.3813  170.2564 C.3     1  UNL1        0.4696
     16 F         140.9095  142.1585  171.4993 F       1  UNL1       -0.1619
     17 F         141.9402  140.7289  170.3184 F       1  UNL1       -0.1619
     18 F         139.2416  142.0337  170.1945 F       1  UNL1       -0.1619
     19 C         143.7303  138.0482  161.6993 C.3     1  UNL1        0.0730
     20 C         144.1598  139.2265  160.8765 C.3     1  UNL1        0.0294
     21 C         143.4995  139.5011  159.5579 C.3     1  UNL1        0.0666
     22 S         143.1964  140.9125  159.1505 S.3     1  UNL1       -0.0756
     23 C         142.0631  143.2265  162.0533 C.ar    1  UNL1        0.1740
     24 N         143.2793  143.9536  161.5610 N.ar    1  UNL1       -0.1277
     25 N         143.8518  143.1752  160.4137 N.ar    1  UNL1       -0.1221
     26 C         142.9895  141.9671  160.1969 C.ar    1  UNL1        0.1932
     27 N         141.8841  141.9988  161.2102 N.ar    1  UNL1       -0.2880
     28 C         140.7913  140.9814  161.3551 C.3     1  UNL1        0.1340
     29 C         139.7185  143.4521  166.7791 C.3     1  UNL1        0.0594
     30 C         140.1032  143.7560  165.3615 C.ar    1  UNL1        0.0883
     31 N         139.5435  144.8591  164.5132 N.ar    1  UNL1       -0.2469
     32 C         140.2095  144.7951  163.1707 C.ar    1  UNL1        0.0685
     33 C         139.9497  145.7126  162.0129 C.3     1  UNL1        0.0527
     34 C         141.1809  143.6523  163.1892 C.ar    1  UNL1        0.0799
     35 S         141.1152  143.0101  164.5433 S.2     1  UNL1       -0.0680
@<TRIPOS>BOND
     1    29    30    1
     2    30    31   ar
     3    31    32   ar
     4    32    33    1
     5    32    34   ar
     6    34    23    1
     7    23    24   ar
     8    24    25   ar
     9    25    26   ar
    10    26    22    1
    11    22    21    1
    12    21    20    1
    13    20    19    1
    14    19     1    1
    15     1     2    1
    16     2     3    1
    17     3     4    1
    18     4     5   ar
    19     5     6   ar
    20     6     7   ar
    21     7     8   ar
    22     8     9   ar
    23     9    15    1
    24    15    16    1
    25    15    17    1
    26    15    18    1
    27     9    10   ar
    28    10    11   ar
    29    11    12   ar
    30    12    13    1
    31    13    14    1
    32    26    27   ar
    33    27    28    1
    34    34    35   ar
    35    35    30   ar
    36    27    23   ar
    37    14     1    1
    38    12     4   ar
    39    11     7   ar
@<TRIPOS>MOLECULE
*****
 35 39 0 0 0
SMALL
GASTEIGER

@<TRIPOS>ATOM
      1 N         140.7533  143.3494  159.8649 N.3     1  UNL1       -0.2720
      2 C         141.0054  144.5288  160.7569 C.3     1  UNL1        0.0768
      3 C         140.8302  144.6317  162.2432 C.3     1  UNL1        0.0434
      4 C         140.3597  143.5807  163.2043 C.ar    1  UNL1       -0.0231
      5 C         140.3285  144.0994  164.6115 C.ar    1  UNL1       -0.0013
      6 C         139.8857  143.2047  165.7310 C.ar    1  UNL1        0.0388
      7 C         139.4741  141.7912  165.4435 C.ar    1  UNL1        0.1643
      8 O         138.9953  140.6841  166.3351 O.2     1  UNL1       -0.4317
      9 C         138.7306  139.4811  165.4791 C.ar    1  UNL1        0.3031
     10 N         139.0458  139.8447  164.0583 N.ar    1  UNL1       -0.2053
     11 C         139.5053  141.2725  164.0363 C.ar    1  UNL1        0.1145
     12 C         139.9481  142.1672  162.9168 C.ar    1  UNL1       -0.0039
     13 C         139.9054  141.4556  161.5970 C.3     1  UNL1        0.0450
     14 C         140.2638  141.9819  160.2388 C.3     1  UNL1        0.0769
     15 C         138.2374  138.1484  165.9594 C.3     1  UNL1        0.4696
     16 F         137.7441  136.8158  166.4398 F       1  UNL1       -0.1619
     17 F         139.0090  137.4692  164.8671 F       1  UNL1       -0.1619
     18 F         137.4658  138.8278  167.0518 F       1  UNL1       -0.1619
     19 C         141.0270  143.5666  158.4062 C.3     1  UNL1        0.0730
     20 C         142.3855  144.0165  157.9568 C.3     1  UNL1        0.0294
     21 C         143.4187  143.0031  157.5622 C.3     1  UNL1        0.0666
     22 S         144.3987  142.4964  158.5785 S.3     1  UNL1       -0.0756
     23 C         143.5657  139.6734  161.1088 C.ar    1  UNL1        0.1740
     24 N         143.7851  138.8821  159.8534 N.ar    1  UNL1       -0.1277
     25 N         144.1239  139.8433  158.7529 N.ar    1  UNL1       -0.1221
     26 C         144.1138  141.2287  159.3280 C.ar    1  UNL1        0.1932
     27 N         143.7688  141.1236  160.7839 N.ar    1  UNL1       -0.2880
     28 C         143.6482  142.2679  161.7462 C.3     1  UNL1        0.1340
     29 C         143.7075  138.4644  166.2468 C.3     1  UNL1        0.0594
     30 C         143.2715  138.5571  164.8145 C.ar    1  UNL1        0.0883
     31 N         142.0350  137.9433  164.2278 N.ar    1  UNL1       -0.2469
     32 C         141.9947  138.2867  162.7682 C.ar    1  UNL1        0.0685
     33 C         140.9298  137.8762  161.7949 C.3     1  UNL1        0.0527
     34 C         143.2063  139.1128  162.4528 C.ar    1  UNL1        0.0799
     35 S         143.9954  139.2799  163.7175 S.2     1  UNL1       -0.0680
@<TRIPOS>BOND
     1    29    30    1
     2    30    31   ar
     3    31    32   ar
     4    32    33    1
     5    32    34   ar
     6    34    23    1
     7    23    24   ar
     8    24    25   ar
     9    25    26   ar
    10    26    22    1
    11    22    21    1
    12    21    20    1
    13    20    19    1
    14    19     1    1
    15     1     2    1
    16     2     3    1
    17     3     4    1
    18     4     5   ar
    19     5     6   ar
    20     6     7   ar
    21     7     8   ar
    22     8     9   ar
    23     9    15    1
    24    15    16    1
    25    15    17    1
    26    15    18    1
    27     9    10   ar
    28    10    11   ar
    29    11    12   ar
    30    12    13    1
    31    13    14    1
    32    26    27   ar
    33    27    28    1
    34    34    35   ar
    35    35    30   ar
    36    27    23   ar
    37    14     1    1
    38    12     4   ar
    39    11     7   ar
@<TRIPOS>MOLECULE
*****
 35 39 0 0 0
SMALL
GASTEIGER

@<TRIPOS>ATOM
      1 N         139.3270  138.3466  162.7453 N.3     1  UNL1       -0.2720
      2 C         140.6571  137.6586  162.8323 C.3     1  UNL1        0.0768
      3 C         141.6878  137.7495  163.9185 C.3     1  UNL1        0.0434
      4 C         141.6427  138.5506  165.1857 C.ar    1  UNL1       -0.0231
      5 C         142.8867  138.3567  166.0011 C.ar    1  UNL1       -0.0013
      6 C         143.0440  139.0711  167.3107 C.ar    1  UNL1        0.0388
      7 C         141.9574  139.9793  167.8049 C.ar    1  UNL1        0.1643
      8 O         141.8314  140.8103  169.0473 O.2     1  UNL1       -0.4317
      9 C         140.5096  141.5178  168.9998 C.ar    1  UNL1        0.3031
     10 N         139.8185  141.1240  167.7280 N.ar    1  UNL1       -0.2053
     11 C         140.7133  140.1732  166.9895 C.ar    1  UNL1        0.1145
     12 C         140.5560  139.4589  165.6799 C.ar    1  UNL1       -0.0039
     13 C         139.2459  139.7902  165.0289 C.3     1  UNL1        0.0450
     14 C         138.6990  139.2951  163.7228 C.3     1  UNL1        0.0769
     15 C         139.9730  142.4545  170.0411 C.3     1  UNL1        0.4696
     16 F         139.4364  143.3914  171.0826 F       1  UNL1       -0.1619
     17 F         138.8217  141.5244  170.2846 F       1  UNL1       -0.1619
     18 F         141.1243  143.3848  169.7976 F       1  UNL1       -0.1619
     19 C         138.5180  138.0460  161.5184 C.3     1  UNL1        0.0730
     20 C         139.1666  138.0763  160.1663 C.3     1  UNL1        0.0294
     21 C         139.1074  139.3227  159.3337 C.3     1  UNL1        0.0666
     22 S         138.1593  140.4255  159.7010 S.3     1  UNL1       -0.0756
     23 C         139.7596  142.8305  162.2934 C.ar    1  UNL1        0.1740
     24 N         138.3249  142.8452  162.7314 N.ar    1  UNL1       -0.1277
     25 N         137.5510  141.9460  161.8135 N.ar    1  UNL1       -0.1221
     26 C         138.5072  141.3757  160.8083 C.ar    1  UNL1        0.1932
     27 N         139.8721  141.9224  161.1049 N.ar    1  UNL1       -0.2880
     28 C         141.1290  141.6148  160.3462 C.3     1  UNL1        0.1340
     29 C         144.1801  143.9726  164.9458 C.3     1  UNL1        0.0594
     30 C         142.9160  144.1155  164.1510 C.ar    1  UNL1        0.0883
     31 N         142.3132  145.4049  163.6777 N.ar    1  UNL1       -0.2469
     32 C         141.0575  145.0805  162.9242 C.ar    1  UNL1        0.0685
     33 C         140.1366  146.0719  162.2767 C.3     1  UNL1        0.0527
     34 C         140.8841  143.5906  162.9318 C.ar    1  UNL1        0.0799
     35 S         142.0328  142.9942  163.6901 S.2     1  UNL1       -0.0680
@<TRIPOS>BOND
     1    29    30    1
     2    30    31   ar
     3    31    32   ar
     4    32    33    1
     5    32    34   ar
     6    34    23    1
     7    23    24   ar
     8    24    25   ar
     9    25    26   ar
    10    26    22    1
    11    22    21    1
    12    21    20    1
    13    20    19    1
    14    19     1    1
    15     1     2    1
    16     2     3    1
    17     3     4    1
    18     4     5   ar
    19     5     6   ar
    20     6     7   ar
    21     7     8   ar
    22     8     9   ar
    23     9    15    1
    24    15    16    1
    25    15    17    1
    26    15    18    1
    27     9    10   ar
    28    10    11   ar
    29    11    12   ar
    30    12    13    1
    31    13    14    1
    32    26    27   ar
    33    27    28    1
    34    34    35   ar
    35    35    30   ar
    36    27    23   ar
    37    14     1    1
    38    12     4   ar
    39    11     7   ar
@<TRIPOS>MOLECULE
*****
 35 39 0 0 0
SMALL
GASTEIGER

@<TRIPOS>ATOM
      1 N         143.6108  142.3607  160.9582 N.3     1  UNL1       -0.2720
      2 C         144.5100  143.0534  161.9390 C.3     1  UNL1        0.0768
      3 C         144.4137  143.0846  163.4356 C.3     1  UNL1        0.0434
      4 C         143.3947  142.4309  164.3210 C.ar    1  UNL1       -0.0231
      5 C         143.6643  142.7146  165.7691 C.ar    1  UNL1       -0.0013
      6 C         142.7594  142.1519  166.8248 C.ar    1  UNL1        0.0388
      7 C         141.5848  141.3054  166.4324 C.ar    1  UNL1        0.1643
      8 O         140.5263  140.6193  167.2441 O.2     1  UNL1       -0.4317
      9 C         139.6024  139.9116  166.2977 C.ar    1  UNL1        0.3031
     10 N         140.0900  140.1603  164.9010 N.ar    1  UNL1       -0.2053
     11 C         141.3151  141.0218  164.9843 C.ar    1  UNL1        0.1145
     12 C         142.2201  141.5845  163.9287 C.ar    1  UNL1       -0.0039
     13 C         141.7745  141.1828  162.5539 C.3     1  UNL1        0.0450
     14 C         142.3935  141.5282  161.2319 C.3     1  UNL1        0.0769
     15 C         138.4018  139.0980  166.6805 C.3     1  UNL1        0.4696
     16 F         137.2012  138.2844  167.0633 F       1  UNL1       -0.1619
     17 F         138.5581  139.5382  168.1059 F       1  UNL1       -0.1619
     18 F         138.2455  138.6578  165.2551 F       1  UNL1       -0.1619
     19 C         143.9777  142.5219  159.5128 C.3     1  UNL1        0.0730
     20 C         142.9096  142.4916  158.4600 C.3     1  UNL1        0.0294
     21 C         142.6232  143.7190  157.6466 C.3     1  UNL1        0.0666
     22 S         141.3990  144.5379  157.9303 S.3     1  UNL1       -0.0756
     23 C         139.1159  143.5836  160.9207 C.ar    1  UNL1        0.1740
     24 N         138.4080  142.9031  159.7868 N.ar    1  UNL1       -0.1277
     25 N         139.1771  143.1777  158.5286 N.ar    1  UNL1       -0.1221
     26 C         140.3603  144.0280  158.8849 C.ar    1  UNL1        0.1932
     27 N         140.3225  144.2789  160.3632 N.ar    1  UNL1       -0.2880
     28 C         141.3168  145.0837  161.1467 C.3     1  UNL1        0.1340
     29 C         138.2733  145.0568  165.9208 C.3     1  UNL1        0.0594
     30 C         138.3044  144.2483  164.6577 C.ar    1  UNL1        0.0883
     31 N         137.7735  142.8556  164.4890 N.ar    1  UNL1       -0.2469
     32 C         138.0128  142.4371  163.0686 C.ar    1  UNL1        0.0685
     33 C         137.6390  141.1165  162.4636 C.3     1  UNL1        0.0527
     34 C         138.6917  143.5711  162.3594 C.ar    1  UNL1        0.0799
     35 S         138.8719  144.6905  163.3415 S.2     1  UNL1       -0.0680
@<TRIPOS>BOND
     1    29    30    1
     2    30    31   ar
     3    31    32   ar
     4    32    33    1
     5    32    34   ar
     6    34    23    1
     7    23    24   ar
     8    24    25   ar
     9    25    26   ar
    10    26    22    1
    11    22    21    1
    12    21    20    1
    13    20    19    1
    14    19     1    1
    15     1     2    1
    16     2     3    1
    17     3     4    1
    18     4     5   ar
    19     5     6   ar
    20     6     7   ar
    21     7     8   ar
    22     8     9   ar
    23     9    15    1
    24    15    16    1
    25    15    17    1
    26    15    18    1
    27     9    10   ar
    28    10    11   ar
    29    11    12   ar
    30    12    13    1
    31    13    14    1
    32    26    27   ar
    33    27    28    1
    34    34    35   ar
    35    35    30   ar
    36    27    23   ar
    37    14     1    1
    38    12     4   ar
    39    11     7   ar
@<TRIPOS>MOLECULE
*****
 35 39 0 0 0
SMALL
GASTEIGER

@<TRIPOS>ATOM
      1 N         141.9119  143.5059  162.2016 N.3     1  UNL1       -0.2720
      2 C         142.9939  142.5617  161.7679 C.3     1  UNL1        0.0768
      3 C         143.5684  141.3925  162.5118 C.3     1  UNL1        0.0434
      4 C         143.2028  140.8789  163.8728 C.ar    1  UNL1       -0.0231
      5 C         144.0246  139.6806  164.2453 C.ar    1  UNL1       -0.0013
      6 C         143.8160  139.0108  165.5711 C.ar    1  UNL1        0.0388
      7 C         142.7857  139.5394  166.5246 C.ar    1  UNL1        0.1643
      8 O         142.3594  139.0916  167.8912 O.2     1  UNL1       -0.4317
      9 C         141.2741  140.0131  168.3634 C.ar    1  UNL1        0.3031
     10 N         141.0296  141.0305  167.2886 N.ar    1  UNL1       -0.2053
     11 C         141.9639  140.7377  166.1521 C.ar    1  UNL1        0.1145
     12 C         142.1724  141.4075  164.8263 C.ar    1  UNL1       -0.0039
     13 C         141.2532  142.5802  164.6541 C.3     1  UNL1        0.0450
     14 C         141.1374  143.5141  163.4860 C.3     1  UNL1        0.0769
     15 C         140.5588  139.9317  169.6794 C.3     1  UNL1        0.4696
     16 F         139.8434  139.8503  170.9953 F       1  UNL1       -0.1619
     17 F         141.5993  138.9774  170.1858 F       1  UNL1       -0.1619
     18 F         139.5182  140.8860  169.1728 F       1  UNL1       -0.1619
     19 C         141.5579  144.5843  161.2210 C.3     1  UNL1        0.0730
     20 C         141.2790  144.2343  159.7894 C.3     1  UNL1        0.0294
     21 C         139.8631  144.1074  159.3104 C.3     1  UNL1        0.0666
     22 S         139.2445  142.7504  159.1501 S.3     1  UNL1       -0.0756
     23 C         139.8649  140.0785  161.8964 C.ar    1  UNL1        0.1740
     24 N         140.8656  139.6649  160.8582 N.ar    1  UNL1       -0.1277
     25 N         140.7549  140.6155  159.7031 N.ar    1  UNL1       -0.1221
     26 C         139.6859  141.6165  160.0274 C.ar    1  UNL1        0.1932
     27 N         139.1359  141.2847  161.3828 N.ar    1  UNL1       -0.2880
     28 C         138.0478  142.0284  162.0991 C.3     1  UNL1        0.1340
     29 C         137.9412  138.9211  166.6755 C.3     1  UNL1        0.0594
     30 C         138.7496  138.8724  165.4130 C.ar    1  UNL1        0.0883
     31 N         139.8072  137.8615  165.0817 N.ar    1  UNL1       -0.2469
     32 C         140.3537  138.1903  163.7241 C.ar    1  UNL1        0.0685
     33 C         141.4308  137.4372  163.0011 C.3     1  UNL1        0.0527
     34 C         139.6339  139.4044  163.2162 C.ar    1  UNL1        0.0799
     35 S         138.6426  139.8259  164.2601 S.2     1  UNL1       -0.0680
@<TRIPOS>BOND
     1    29    30    1
     2    30    31   ar
     3    31    32   ar
     4    32    33    1
     5    32    34   ar
     6    34    23    1
     7    23    24   ar
     8    24    25   ar
     9    25    26   ar
    10    26    22    1
    11    22    21    1
    12    21    20    1
    13    20    19    1
    14    19     1    1
    15     1     2    1
    16     2     3    1
    17     3     4    1
    18     4     5   ar
    19     5     6   ar
    20     6     7   ar
    21     7     8   ar
    22     8     9   ar
    23     9    15    1
    24    15    16    1
    25    15    17    1
    26    15    18    1
    27     9    10   ar
    28    10    11   ar
    29    11    12   ar
    30    12    13    1
    31    13    14    1
    32    26    27   ar
    33    27    28    1
    34    34    35   ar
    35    35    30   ar
    36    27    23   ar
    37    14     1    1
    38    12     4   ar
    39    11     7   ar
@<TRIPOS>MOLECULE
*****
 35 39 0 0 0
SMALL
GASTEIGER

@<TRIPOS>ATOM
      1 N         139.3478  141.4176  158.8122 N.3     1  UNL1       -0.2720
      2 C         140.5933  140.6239  158.5497 C.3     1  UNL1        0.0768
      3 C         141.2672  139.6201  159.4378 C.3     1  UNL1        0.0434
      4 C         140.8619  139.1624  160.8075 C.ar    1  UNL1       -0.0231
      5 C         141.8170  138.1399  161.3484 C.ar    1  UNL1       -0.0013
      6 C         141.5929  137.5503  162.7093 C.ar    1  UNL1        0.0388
      7 C         140.4138  137.9830  163.5294 C.ar    1  UNL1        0.1643
      8 O         139.9384  137.5809  164.8940 O.2     1  UNL1       -0.4317
      9 C         138.6895  138.3549  165.1966 C.ar    1  UNL1        0.3031
     10 N         138.3931  139.2353  164.0188 N.ar    1  UNL1       -0.2053
     11 C         139.4587  139.0055  162.9884 C.ar    1  UNL1        0.1145
     12 C         139.6828  139.5951  161.6275 C.ar    1  UNL1       -0.0039
     13 C         138.6177  140.5926  161.2803 C.3     1  UNL1        0.0450
     14 C         138.4687  141.4036  160.0273 C.3     1  UNL1        0.0769
     15 C         137.8794  138.2643  166.4557 C.3     1  UNL1        0.4696
     16 F         137.0692  138.1736  167.7148 F       1  UNL1       -0.1619
     17 F         137.8475  139.7614  166.5428 F       1  UNL1       -0.1619
     18 F         137.9113  136.7671  166.3685 F       1  UNL1       -0.1619
     19 C         138.9259  142.3483  157.7141 C.3     1  UNL1        0.0730
     20 C         139.3877  143.7754  157.7216 C.3     1  UNL1        0.0294
     21 C         140.8203  144.0985  158.0273 C.3     1  UNL1        0.0666
     22 S         141.1514  145.1649  159.0288 S.3     1  UNL1       -0.0756
     23 C         140.2532  144.3081  162.7064 C.ar    1  UNL1        0.1740
     24 N         139.3938  145.5150  162.4717 N.ar    1  UNL1       -0.1277
     25 N         139.6257  145.9828  161.0655 N.ar    1  UNL1       -0.1221
     26 C         140.6284  145.0651  160.4311 C.ar    1  UNL1        0.1932
     27 N         141.0161  144.0302  161.4452 N.ar    1  UNL1       -0.2880
     28 C         141.9951  142.9132  161.2351 C.3     1  UNL1        0.1340
     29 C         142.1255  141.9802  167.0602 C.3     1  UNL1        0.0594
     30 C         141.1958  142.4481  165.9800 C.ar    1  UNL1        0.0883
     31 N         139.7269  142.1566  165.8937 N.ar    1  UNL1       -0.2469
     32 C         139.1950  142.8179  164.6569 C.ar    1  UNL1        0.0685
     33 C         137.7728  142.7849  164.1815 C.3     1  UNL1        0.0527
     34 C         140.3351  143.5181  163.9788 C.ar    1  UNL1        0.0799
     35 S         141.5717  143.2895  164.7966 S.2     1  UNL1       -0.0680
@<TRIPOS>BOND
     1    29    30    1
     2    30    31   ar
     3    31    32   ar
     4    32    33    1
     5    32    34   ar
     6    34    23    1
     7    23    24   ar
     8    24    25   ar
     9    25    26   ar
    10    26    22    1
    11    22    21    1
    12    21    20    1
    13    20    19    1
    14    19     1    1
    15     1     2    1
    16     2     3    1
    17     3     4    1
    18     4     5   ar
    19     5     6   ar
    20     6     7   ar
    21     7     8   ar
    22     8     9   ar
    23     9    15    1
    24    15    16    1
    25    15    17    1
    26    15    18    1
    27     9    10   ar
    28    10    11   ar
    29    11    12   ar
    30    12    13    1
    31    13    14    1
    32    26    27   ar
    33    27    28    1
    34    34    35   ar
    35    35    30   ar
    36    27    23   ar
    37    14     1    1
    38    12     4   ar
    39    11     7   ar
