@<TRIPOS>MOLECULE
*****
 38 43 0 0 0
SMALL
GASTEIGER

@<TRIPOS>ATOM
      1 C         140.0369  144.5475  157.5830 C.3     1  UNL1        0.0666
      2 S         139.1747  143.3275  157.7170 S.3     1  UNL1       -0.0756
      3 C         139.5398  141.0596  160.8457 C.ar    1  UNL1        0.1669
      4 N         138.3962  141.9389  161.2570 N.ar    1  UNL1       -0.1282
      5 N         138.1203  142.8954  160.1350 N.ar    1  UNL1       -0.1221
      6 C         139.0933  142.6073  159.0303 C.ar    1  UNL1        0.1932
      7 N         139.9706  141.4727  159.4696 N.ar    1  UNL1       -0.2884
      8 C         141.0834  140.8590  158.6727 C.3     1  UNL1        0.1340
      9 C         138.0674  138.8386  167.1821 C.3     1  UNL1        0.0521
     10 C         138.5870  139.1190  165.8032 C.ar    1  UNL1        0.0593
     11 C         137.9807  140.2184  164.9824 C.ar    1  UNL1        0.0147
     12 C         138.5004  140.4988  163.6035 C.ar    1  UNL1        0.0028
     13 C         139.6264  139.6798  163.0454 C.ar    1  UNL1        0.0206
     14 C         140.1460  139.9602  161.6665 C.ar    1  UNL1        0.0374
     15 C         141.2720  139.1412  161.1085 C.ar    1  UNL1        0.0031
     16 C         141.8783  138.0418  161.9293 C.ar    1  UNL1        0.0016
     17 C         141.3586  137.7614  163.3081 C.ar    1  UNL1        0.0191
     18 C         140.2327  138.5804  163.8662 C.ar    1  UNL1        0.0810
     19 N         139.7130  138.2999  165.2451 N.ar    1  UNL1       -0.2497
     20 C         140.3524  145.3794  158.7907 C.3     1  UNL1        0.0294
     21 C         141.6153  145.1334  159.5617 C.3     1  UNL1        0.0730
     22 N         141.5600  144.4377  160.8895 N.3     1  UNL1       -0.2720
     23 C         142.5630  143.3408  161.0918 C.3     1  UNL1        0.0768
     24 C         142.7628  142.4662  162.2940 C.3     1  UNL1        0.0434
     25 C         142.0089  142.4725  163.5907 C.ar    1  UNL1       -0.0230
     26 C         142.5310  141.4288  164.5332 C.ar    1  UNL1        0.0178
     27 C         141.9132  141.2675  165.8905 C.ar    1  UNL1        0.1182
     28 N         142.2129  140.3333  167.0251 N.ar    1  UNL1       -0.2121
     29 C         141.2583  140.6383  168.1412 C.ar    1  UNL1        0.2052
     30 O         140.3687  141.7610  167.6964 O.2     1  UNL1       -0.4384
     31 C         140.7734  142.1500  166.3055 C.ar    1  UNL1        0.1640
     32 C         140.2514  143.1937  165.3630 C.ar    1  UNL1        0.0346
     33 C         140.8691  143.3549  164.0057 C.ar    1  UNL1       -0.0216
     34 C         140.2016  144.4490  163.2263 C.3     1  UNL1        0.0434
     35 C         140.5092  144.9309  161.8394 C.3     1  UNL1        0.0768
     36 C         141.2031  139.9425  169.4690 C.3     1  UNL1        0.0766
     37 C         140.0021  140.1071  170.3525 C.3     1  UNL1        0.0097
     38 C         142.3488  139.0823  169.9132 C.3     1  UNL1        0.0097
@<TRIPOS>BOND
     1     9    10    1
     2    10    11   ar
     3    11    12   ar
     4    12    13   ar
     5    13    14   ar
     6    14     3    1
     7     3     4   ar
     8     4     5   ar
     9     5     6   ar
    10     6     2    1
    11     2     1    1
    12     1    20    1
    13    20    21    1
    14    21    22    1
    15    22    23    1
    16    23    24    1
    17    24    25    1
    18    25    26   ar
    19    26    27   ar
    20    27    28   ar
    21    28    29   ar
    22    29    36    1
    23    36    37    1
    24    36    38    1
    25    29    30   ar
    26    30    31   ar
    27    31    32   ar
    28    32    33   ar
    29    33    34    1
    30    34    35    1
    31     6     7   ar
    32     7     8    1
    33    14    15   ar
    34    15    16   ar
    35    16    17   ar
    36    17    18   ar
    37    18    19   ar
    38    19    10   ar
    39    18    13   ar
    40     7     3   ar
    41    35    22    1
    42    33    25   ar
    43    31    27   ar
@<TRIPOS>MOLECULE
*****
 38 43 0 0 0
SMALL
GASTEIGER

@<TRIPOS>ATOM
      1 C         139.9741  144.1715  158.0228 C.3     1  UNL1        0.0666
      2 S         139.7946  142.6858  158.1249 S.3     1  UNL1       -0.0756
      3 C         140.3118  140.9698  161.5678 C.ar    1  UNL1        0.1669
      4 N         141.6320  140.7005  160.9084 N.ar    1  UNL1       -0.1282
      5 N         141.5989  141.3106  159.5385 N.ar    1  UNL1       -0.1221
      6 C         140.2583  141.9569  159.3511 C.ar    1  UNL1        0.1932
      7 N         139.4629  141.7463  160.6053 N.ar    1  UNL1       -0.2884
      8 C         138.0640  142.2277  160.8534 C.3     1  UNL1        0.1340
      9 C         143.9428  137.9805  166.5807 C.3     1  UNL1        0.0521
     10 C         142.9349  138.6200  165.6723 C.ar    1  UNL1        0.0593
     11 C         143.3357  139.0514  164.2928 C.ar    1  UNL1        0.0147
     12 C         142.3277  139.6909  163.3845 C.ar    1  UNL1        0.0028
     13 C         140.9189  139.8990  163.8557 C.ar    1  UNL1        0.0206
     14 C         139.9110  140.5385  162.9473 C.ar    1  UNL1        0.0374
     15 C         138.5022  140.7465  163.4186 C.ar    1  UNL1        0.0031
     16 C         138.1014  140.3150  164.7982 C.ar    1  UNL1        0.0016
     17 C         139.1093  139.6756  165.7064 C.ar    1  UNL1        0.0191
     18 C         140.5181  139.4675  165.2352 C.ar    1  UNL1        0.0810
     19 N         141.5261  138.8280  166.1436 N.ar    1  UNL1       -0.2497
     20 C         140.9123  144.8794  158.9549 C.3     1  UNL1        0.0294
     21 C         140.3815  145.5491  160.1876 C.3     1  UNL1        0.0730
     22 N         140.6107  144.9309  161.5349 N.3     1  UNL1       -0.2720
     23 C         139.4396  144.9595  162.4718 C.3     1  UNL1        0.0768
     24 C         139.3493  144.4300  163.8725 C.3     1  UNL1        0.0434
     25 C         140.4077  143.7414  164.6819 C.ar    1  UNL1       -0.0230
     26 C         139.9011  143.3707  166.0443 C.ar    1  UNL1        0.0178
     27 C         140.8047  142.6706  167.0156 C.ar    1  UNL1        0.1182
     28 N         140.5870  142.1844  168.4178 N.ar    1  UNL1       -0.2121
     29 C         141.8626  141.5546  168.8934 C.ar    1  UNL1        0.2052
     30 O         142.8686  141.6515  167.7851 O.2     1  UNL1       -0.4384
     31 C         142.2149  142.3412  166.6246 C.ar    1  UNL1        0.1640
     32 C         142.7215  142.7119  165.2622 C.ar    1  UNL1        0.0346
     33 C         141.8179  143.4120  164.2909 C.ar    1  UNL1       -0.0216
     34 C         142.5179  143.6899  162.9938 C.3     1  UNL1        0.0434
     35 C         141.9806  144.3659  161.7672 C.3     1  UNL1        0.0768
     36 C         142.0917  140.9364  170.2408 C.3     1  UNL1        0.0766
     37 C         142.7779  139.6069  170.3490 C.3     1  UNL1        0.0097
     38 C         141.6347  141.6476  171.4798 C.3     1  UNL1        0.0097
@<TRIPOS>BOND
     1     9    10    1
     2    10    11   ar
     3    11    12   ar
     4    12    13   ar
     5    13    14   ar
     6    14     3    1
     7     3     4   ar
     8     4     5   ar
     9     5     6   ar
    10     6     2    1
    11     2     1    1
    12     1    20    1
    13    20    21    1
    14    21    22    1
    15    22    23    1
    16    23    24    1
    17    24    25    1
    18    25    26   ar
    19    26    27   ar
    20    27    28   ar
    21    28    29   ar
    22    29    36    1
    23    36    37    1
    24    36    38    1
    25    29    30   ar
    26    30    31   ar
    27    31    32   ar
    28    32    33   ar
    29    33    34    1
    30    34    35    1
    31     6     7   ar
    32     7     8    1
    33    14    15   ar
    34    15    16   ar
    35    16    17   ar
    36    17    18   ar
    37    18    19   ar
    38    19    10   ar
    39    18    13   ar
    40     7     3   ar
    41    35    22    1
    42    33    25   ar
    43    31    27   ar
@<TRIPOS>MOLECULE
*****
 38 43 0 0 0
SMALL
GASTEIGER

@<TRIPOS>ATOM
      1 C         141.8932  139.8555  156.9474 C.3     1  UNL1        0.0666
      2 S         140.6411  140.6798  156.8946 S.3     1  UNL1       -0.0756
      3 C         138.5895  141.0323  160.1706 C.ar    1  UNL1        0.1669
      4 N         137.7278  140.0850  159.3894 N.ar    1  UNL1       -0.1282
      5 N         138.3915  139.8377  158.0672 N.ar    1  UNL1       -0.1221
      6 C         139.6633  140.6321  158.0311 C.ar    1  UNL1        0.1932
      7 N         139.7857  141.3704  159.3311 N.ar    1  UNL1       -0.2884
      8 C         140.9074  142.2861  159.7228 C.3     1  UNL1        0.1340
      9 C         138.3977  137.8089  166.2388 C.3     1  UNL1        0.0521
     10 C         138.3745  138.7443  165.0664 C.ar    1  UNL1        0.0593
     11 C         138.6591  138.2261  163.6878 C.ar    1  UNL1        0.0147
     12 C         138.6359  139.1615  162.5154 C.ar    1  UNL1        0.0028
     13 C         138.3281  140.6151  162.7216 C.ar    1  UNL1        0.0206
     14 C         138.3049  141.5504  161.5491 C.ar    1  UNL1        0.0374
     15 C         137.9972  143.0039  161.7554 C.ar    1  UNL1        0.0031
     16 C         137.7126  143.5221  163.1340 C.ar    1  UNL1        0.0016
     17 C         137.7358  142.5868  164.3063 C.ar    1  UNL1        0.0191
     18 C         138.0435  141.1332  164.1002 C.ar    1  UNL1        0.0810
     19 N         138.0667  140.1979  165.2726 N.ar    1  UNL1       -0.2497
     20 C         141.8952  138.5401  157.6685 C.3     1  UNL1        0.0294
     21 C         143.0006  138.2125  158.6280 C.3     1  UNL1        0.0730
     22 N         142.9804  138.7784  160.0170 N.3     1  UNL1       -0.2720
     23 C         143.7049  140.0791  160.2004 C.3     1  UNL1        0.0768
     24 C         143.8663  140.8914  161.4511 C.3     1  UNL1        0.0434
     25 C         143.3431  140.6037  162.8270 C.ar    1  UNL1       -0.0230
     26 C         143.7325  141.6794  163.7973 C.ar    1  UNL1        0.0178
     27 C         143.3082  141.5840  165.2329 C.ar    1  UNL1        0.1182
     28 N         143.5404  142.4841  166.4101 N.ar    1  UNL1       -0.2121
     29 C         142.8702  141.8693  167.6030 C.ar    1  UNL1        0.2052
     30 O         142.2238  140.5894  167.1630 O.2     1  UNL1       -0.4384
     31 C         142.4944  140.4130  165.6983 C.ar    1  UNL1        0.1640
     32 C         142.1050  139.3373  164.7280 C.ar    1  UNL1        0.0346
     33 C         142.5294  139.4327  163.2924 C.ar    1  UNL1       -0.0216
     34 C         142.0378  138.2601  162.4966 C.3     1  UNL1        0.0434
     35 C         142.2386  137.9690  161.0388 C.3     1  UNL1        0.0768
     36 C         142.8501  142.4353  168.9920 C.3     1  UNL1        0.0766
     37 C         144.1080  142.4632  169.8088 C.3     1  UNL1        0.0097
     38 C         141.5722  142.9735  169.5642 C.3     1  UNL1        0.0097
@<TRIPOS>BOND
     1     9    10    1
     2    10    11   ar
     3    11    12   ar
     4    12    13   ar
     5    13    14   ar
     6    14     3    1
     7     3     4   ar
     8     4     5   ar
     9     5     6   ar
    10     6     2    1
    11     2     1    1
    12     1    20    1
    13    20    21    1
    14    21    22    1
    15    22    23    1
    16    23    24    1
    17    24    25    1
    18    25    26   ar
    19    26    27   ar
    20    27    28   ar
    21    28    29   ar
    22    29    36    1
    23    36    37    1
    24    36    38    1
    25    29    30   ar
    26    30    31   ar
    27    31    32   ar
    28    32    33   ar
    29    33    34    1
    30    34    35    1
    31     6     7   ar
    32     7     8    1
    33    14    15   ar
    34    15    16   ar
    35    16    17   ar
    36    17    18   ar
    37    18    19   ar
    38    19    10   ar
    39    18    13   ar
    40     7     3   ar
    41    35    22    1
    42    33    25   ar
    43    31    27   ar
@<TRIPOS>MOLECULE
*****
 38 43 0 0 0
SMALL
GASTEIGER

@<TRIPOS>ATOM
      1 C         143.1240  141.4057  156.6011 C.3     1  UNL1        0.0666
      2 S         142.3546  140.1198  156.6684 S.3     1  UNL1       -0.0756
      3 C         141.4690  138.5639  160.1123 C.ar    1  UNL1        0.1669
      4 N         142.7597  137.8654  159.8019 N.ar    1  UNL1       -0.1282
      5 N         143.2485  138.3633  158.4741 N.ar    1  UNL1       -0.1221
      6 C         142.2600  139.3694  157.9638 C.ar    1  UNL1        0.1932
      7 N         141.1602  139.4934  158.9762 N.ar    1  UNL1       -0.2884
      8 C         139.9619  140.3896  158.8711 C.3     1  UNL1        0.1340
      9 C         143.1441  138.8079  166.7745 C.3     1  UNL1        0.0521
     10 C         142.5166  138.6978  165.4165 C.ar    1  UNL1        0.0593
     11 C         143.3518  138.8943  164.1861 C.ar    1  UNL1        0.0147
     12 C         142.7242  138.7842  162.8282 C.ar    1  UNL1        0.0028
     13 C         141.2614  138.4775  162.7006 C.ar    1  UNL1        0.0206
     14 C         140.6339  138.3674  161.3426 C.ar    1  UNL1        0.0374
     15 C         139.1711  138.0607  161.2151 C.ar    1  UNL1        0.0031
     16 C         138.3359  137.8642  162.4455 C.ar    1  UNL1        0.0016
     17 C         138.9634  137.9743  163.8034 C.ar    1  UNL1        0.0191
     18 C         140.4262  138.2810  163.9310 C.ar    1  UNL1        0.0810
     19 N         141.0538  138.3911  165.2890 N.ar    1  UNL1       -0.2497
     20 C         143.0648  142.3758  157.7438 C.3     1  UNL1        0.0294
     21 C         144.1442  142.3746  158.7853 C.3     1  UNL1        0.0730
     22 N         143.7820  142.3804  160.2409 N.3     1  UNL1       -0.2720
     23 C         142.3139  142.3400  160.5463 C.3     1  UNL1        0.0768
     24 C         141.6370  142.3351  161.8850 C.3     1  UNL1        0.0434
     25 C         142.2608  142.3693  163.2485 C.ar    1  UNL1       -0.0230
     26 C         141.2196  142.3505  164.3282 C.ar    1  UNL1        0.0178
     27 C         141.6333  142.3793  165.7697 C.ar    1  UNL1        0.1182
     28 N         140.8392  142.3701  167.0422 N.ar    1  UNL1       -0.2121
     29 C         141.8033  142.4120  168.1906 C.ar    1  UNL1        0.2052
     30 O         143.1932  142.4471  167.6278 O.2     1  UNL1       -0.4384
     31 C         143.0882  142.4269  166.1317 C.ar    1  UNL1        0.1640
     32 C         144.1294  142.4457  165.0520 C.ar    1  UNL1        0.0346
     33 C         143.7157  142.4169  163.6105 C.ar    1  UNL1       -0.0216
     34 C         144.9061  142.4420  162.6982 C.3     1  UNL1        0.0434
     35 C         144.9355  142.4258  161.1985 C.3     1  UNL1        0.0768
     36 C         141.4410  142.4178  169.6462 C.3     1  UNL1        0.0766
     37 C         140.0503  142.7856  170.0714 C.3     1  UNL1        0.0097
     38 C         142.4692  142.0558  170.6765 C.3     1  UNL1        0.0097
@<TRIPOS>BOND
     1     9    10    1
     2    10    11   ar
     3    11    12   ar
     4    12    13   ar
     5    13    14   ar
     6    14     3    1
     7     3     4   ar
     8     4     5   ar
     9     5     6   ar
    10     6     2    1
    11     2     1    1
    12     1    20    1
    13    20    21    1
    14    21    22    1
    15    22    23    1
    16    23    24    1
    17    24    25    1
    18    25    26   ar
    19    26    27   ar
    20    27    28   ar
    21    28    29   ar
    22    29    36    1
    23    36    37    1
    24    36    38    1
    25    29    30   ar
    26    30    31   ar
    27    31    32   ar
    28    32    33   ar
    29    33    34    1
    30    34    35    1
    31     6     7   ar
    32     7     8    1
    33    14    15   ar
    34    15    16   ar
    35    16    17   ar
    36    17    18   ar
    37    18    19   ar
    38    19    10   ar
    39    18    13   ar
    40     7     3   ar
    41    35    22    1
    42    33    25   ar
    43    31    27   ar
@<TRIPOS>MOLECULE
*****
 38 43 0 0 0
SMALL
GASTEIGER

@<TRIPOS>ATOM
      1 C         143.3367  141.9725  157.2938 C.3     1  UNL1        0.0666
      2 S         141.8877  141.5924  157.3688 S.3     1  UNL1       -0.0756
      3 C         140.1085  141.3348  160.8088 C.ar    1  UNL1        0.1669
      4 N         140.5772  139.9226  160.6183 N.ar    1  UNL1       -0.1282
      5 N         141.3007  139.8473  159.3065 N.ar    1  UNL1       -0.1221
      6 C         141.2792  141.2129  158.6862 C.ar    1  UNL1        0.1932
      7 N         140.5424  142.1321  159.6147 N.ar    1  UNL1       -0.2884
      8 C         140.2847  143.5925  159.3887 C.3     1  UNL1        0.1340
      9 C         138.0882  138.2322  166.6004 C.3     1  UNL1        0.0521
     10 C         138.4014  139.1385  165.4469 C.ar    1  UNL1        0.0593
     11 C         139.1691  138.6156  164.2692 C.ar    1  UNL1        0.0147
     12 C         139.4822  139.5220  163.1157 C.ar    1  UNL1        0.0028
     13 C         139.0277  140.9513  163.1400 C.ar    1  UNL1        0.0206
     14 C         139.3409  141.8576  161.9865 C.ar    1  UNL1        0.0374
     15 C         138.8863  143.2868  162.0110 C.ar    1  UNL1        0.0031
     16 C         138.1185  143.8098  163.1887 C.ar    1  UNL1        0.0016
     17 C         137.8054  142.9035  164.3421 C.ar    1  UNL1        0.0191
     18 C         138.2600  141.4742  164.3178 C.ar    1  UNL1        0.0810
     19 N         137.9468  140.5678  165.4713 N.ar    1  UNL1       -0.2497
     20 C         143.9331  142.8656  158.3412 C.3     1  UNL1        0.0294
     21 C         144.6745  142.2699  159.5010 C.3     1  UNL1        0.0730
     22 N         144.0110  142.1670  160.8424 N.3     1  UNL1       -0.2720
     23 C         143.3796  143.4278  161.3544 C.3     1  UNL1        0.0768
     24 C         142.6479  143.6499  162.6449 C.3     1  UNL1        0.0434
     25 C         142.3668  142.6664  163.7419 C.ar    1  UNL1       -0.0230
     26 C         141.6015  143.3017  164.8648 C.ar    1  UNL1        0.0178
     27 C         141.2174  142.4884  166.0652 C.ar    1  UNL1        0.1182
     28 N         140.4686  142.8383  167.3168 N.ar    1  UNL1       -0.2121
     29 C         140.3869  141.6059  168.1680 C.ar    1  UNL1        0.2052
     30 O         141.0853  140.4943  167.4424 O.2     1  UNL1       -0.4384
     31 C         141.5986  141.0397  166.1428 C.ar    1  UNL1        0.1640
     32 C         142.3639  140.4043  165.0199 C.ar    1  UNL1        0.0346
     33 C         142.7479  141.2177  163.8195 C.ar    1  UNL1       -0.0216
     34 C         143.5044  140.3948  162.8192 C.3     1  UNL1        0.0434
     35 C         144.0664  140.8173  161.4942 C.3     1  UNL1        0.0768
     36 C         139.7234  141.5032  169.5094 C.3     1  UNL1        0.0766
     37 C         139.9288  142.5811  170.5322 C.3     1  UNL1        0.0097
     38 C         138.8545  140.3228  169.8279 C.3     1  UNL1        0.0097
@<TRIPOS>BOND
     1     9    10    1
     2    10    11   ar
     3    11    12   ar
     4    12    13   ar
     5    13    14   ar
     6    14     3    1
     7     3     4   ar
     8     4     5   ar
     9     5     6   ar
    10     6     2    1
    11     2     1    1
    12     1    20    1
    13    20    21    1
    14    21    22    1
    15    22    23    1
    16    23    24    1
    17    24    25    1
    18    25    26   ar
    19    26    27   ar
    20    27    28   ar
    21    28    29   ar
    22    29    36    1
    23    36    37    1
    24    36    38    1
    25    29    30   ar
    26    30    31   ar
    27    31    32   ar
    28    32    33   ar
    29    33    34    1
    30    34    35    1
    31     6     7   ar
    32     7     8    1
    33    14    15   ar
    34    15    16   ar
    35    16    17   ar
    36    17    18   ar
    37    18    19   ar
    38    19    10   ar
    39    18    13   ar
    40     7     3   ar
    41    35    22    1
    42    33    25   ar
    43    31    27   ar
@<TRIPOS>MOLECULE
*****
 38 43 0 0 0
SMALL
GASTEIGER

@<TRIPOS>ATOM
      1 C         140.5536  139.8231  156.5250 C.3     1  UNL1        0.0666
      2 S         142.0369  140.0151  156.6380 S.3     1  UNL1       -0.0756
      3 C         143.5096  140.6100  160.1796 C.ar    1  UNL1        0.1669
      4 N         143.9244  139.1905  159.9278 N.ar    1  UNL1       -0.1282
      5 N         143.4232  138.7950  158.5705 N.ar    1  UNL1       -0.1221
      6 C         142.6987  139.9699  157.9834 C.ar    1  UNL1        0.1932
      7 N         142.7521  141.0915  158.9778 N.ar    1  UNL1       -0.2884
      8 C         142.1531  142.4555  158.8015 C.3     1  UNL1        0.1340
      9 C         143.0434  138.9344  166.8298 C.3     1  UNL1        0.0521
     10 C         143.2328  139.5527  165.4763 C.ar    1  UNL1        0.0593
     11 C         142.9412  138.7550  164.2399 C.ar    1  UNL1        0.0147
     12 C         143.1307  139.3734  162.8865 C.ar    1  UNL1        0.0028
     13 C         143.6117  140.7893  162.7694 C.ar    1  UNL1        0.0206
     14 C         143.8011  141.4076  161.4159 C.ar    1  UNL1        0.0374
     15 C         144.2821  142.8235  161.2990 C.ar    1  UNL1        0.0031
     16 C         144.5736  143.6212  162.5354 C.ar    1  UNL1        0.0016
     17 C         144.3842  143.0030  163.8888 C.ar    1  UNL1        0.0191
     18 C         143.9032  141.5870  164.0058 C.ar    1  UNL1        0.0810
     19 N         143.7138  140.9687  165.3593 N.ar    1  UNL1       -0.2497
     20 C         139.6659  140.1346  157.6934 C.3     1  UNL1        0.0294
     21 C         139.3153  139.0578  158.6770 C.3     1  UNL1        0.0730
     22 N         139.3997  139.3307  160.1496 N.3     1  UNL1       -0.2720
     23 C         139.8167  140.7202  160.5311 C.3     1  UNL1        0.0768
     24 C         139.9929  141.3002  161.9032 C.3     1  UNL1        0.0434
     25 C         139.7957  140.6340  163.2325 C.ar    1  UNL1       -0.0230
     26 C         140.0799  141.5758  164.3650 C.ar    1  UNL1        0.0178
     27 C         139.9419  141.1068  165.7830 C.ar    1  UNL1        0.1182
     28 N         140.1527  141.8022  167.0952 N.ar    1  UNL1       -0.2121
     29 C         139.8607  140.8213  168.1919 C.ar    1  UNL1        0.2052
     30 O         139.4696  139.5197  167.5575 O.2     1  UNL1       -0.4384
     31 C         139.5198  139.6960  166.0688 C.ar    1  UNL1        0.1640
     32 C         139.2355  138.7543  164.9363 C.ar    1  UNL1        0.0346
     33 C         139.3735  139.2233  163.5182 C.ar    1  UNL1       -0.0216
     34 C         139.0443  138.1303  162.5451 C.3     1  UNL1        0.0434
     35 C         139.0560  138.1782  161.0459 C.3     1  UNL1        0.0768
     36 C         139.9452  141.0943  169.6644 C.3     1  UNL1        0.0766
     37 C         140.1486  139.9617  170.6267 C.3     1  UNL1        0.0097
     38 C         139.8262  142.4998  170.1747 C.3     1  UNL1        0.0097
@<TRIPOS>BOND
     1     9    10    1
     2    10    11   ar
     3    11    12   ar
     4    12    13   ar
     5    13    14   ar
     6    14     3    1
     7     3     4   ar
     8     4     5   ar
     9     5     6   ar
    10     6     2    1
    11     2     1    1
    12     1    20    1
    13    20    21    1
    14    21    22    1
    15    22    23    1
    16    23    24    1
    17    24    25    1
    18    25    26   ar
    19    26    27   ar
    20    27    28   ar
    21    28    29   ar
    22    29    36    1
    23    36    37    1
    24    36    38    1
    25    29    30   ar
    26    30    31   ar
    27    31    32   ar
    28    32    33   ar
    29    33    34    1
    30    34    35    1
    31     6     7   ar
    32     7     8    1
    33    14    15   ar
    34    15    16   ar
    35    16    17   ar
    36    17    18   ar
    37    18    19   ar
    38    19    10   ar
    39    18    13   ar
    40     7     3   ar
    41    35    22    1
    42    33    25   ar
    43    31    27   ar
@<TRIPOS>MOLECULE
*****
 38 43 0 0 0
SMALL
GASTEIGER

@<TRIPOS>ATOM
      1 C         139.2812  140.0063  156.9980 C.3     1  UNL1        0.0666
      2 S         138.3220  141.0678  157.4486 S.3     1  UNL1       -0.0756
      3 C         139.1473  143.2894  160.5226 C.ar    1  UNL1        0.1669
      4 N         139.7298  144.1079  159.4086 N.ar    1  UNL1       -0.1282
      5 N         139.4915  143.3753  158.1216 N.ar    1  UNL1       -0.1221
      6 C         138.7618  142.1040  158.4401 C.ar    1  UNL1        0.1932
      7 N         138.5490  142.0510  159.9239 N.ar    1  UNL1       -0.2884
      8 C         137.8591  140.9523  160.6770 C.3     1  UNL1        0.1340
      9 C         144.3650  143.9239  164.9525 C.3     1  UNL1        0.0521
     10 C         143.0639  143.8546  164.2091 C.ar    1  UNL1        0.0593
     11 C         143.0505  143.4973  162.7524 C.ar    1  UNL1        0.0147
     12 C         141.7494  143.4280  162.0091 C.ar    1  UNL1        0.0028
     13 C         140.4618  143.7159  162.7226 C.ar    1  UNL1        0.0206
     14 C         139.1607  143.6466  161.9793 C.ar    1  UNL1        0.0374
     15 C         137.8731  143.9345  162.6929 C.ar    1  UNL1        0.0031
     16 C         137.8866  144.2918  164.1497 C.ar    1  UNL1        0.0016
     17 C         139.1875  144.3611  164.8929 C.ar    1  UNL1        0.0191
     18 C         140.4752  144.0732  164.1794 C.ar    1  UNL1        0.0810
     19 N         141.7763  144.1425  164.9227 N.ar    1  UNL1       -0.2497
     20 C         140.5032  139.7044  157.8140 C.3     1  UNL1        0.0294
     21 C         140.5060  138.5379  158.7570 C.3     1  UNL1        0.0730
     22 N         140.3425  138.7644  160.2307 N.3     1  UNL1       -0.2720
     23 C         141.2690  139.7743  160.8406 C.3     1  UNL1        0.0768
     24 C         141.3560  140.2204  162.2702 C.3     1  UNL1        0.0434
     25 C         140.5381  139.7667  163.4427 C.ar    1  UNL1       -0.0230
     26 C         140.9501  140.4688  164.7027 C.ar    1  UNL1        0.0178
     27 C         140.2551  140.1592  165.9954 C.ar    1  UNL1        0.1182
     28 N         140.4417  140.6873  167.3869 N.ar    1  UNL1       -0.2121
     29 C         139.4501  140.0019  168.2797 C.ar    1  UNL1        0.2052
     30 O         138.6507  139.0503  167.4400 O.2     1  UNL1       -0.4384
     31 C         139.1481  139.1474  166.0283 C.ar    1  UNL1        0.1640
     32 C         138.7362  138.4453  164.7683 C.ar    1  UNL1        0.0346
     33 C         139.4312  138.7550  163.4756 C.ar    1  UNL1       -0.0216
     34 C         138.8687  137.9470  162.3439 C.3     1  UNL1        0.0434
     35 C         139.2744  137.9513  160.8997 C.3     1  UNL1        0.0768
     36 C         139.2868  140.2286  169.7535 C.3     1  UNL1        0.0766
     37 C         137.9671  139.9560  170.4124 C.3     1  UNL1        0.0097
     38 C         140.4430  140.7277  170.5683 C.3     1  UNL1        0.0097
@<TRIPOS>BOND
     1     9    10    1
     2    10    11   ar
     3    11    12   ar
     4    12    13   ar
     5    13    14   ar
     6    14     3    1
     7     3     4   ar
     8     4     5   ar
     9     5     6   ar
    10     6     2    1
    11     2     1    1
    12     1    20    1
    13    20    21    1
    14    21    22    1
    15    22    23    1
    16    23    24    1
    17    24    25    1
    18    25    26   ar
    19    26    27   ar
    20    27    28   ar
    21    28    29   ar
    22    29    36    1
    23    36    37    1
    24    36    38    1
    25    29    30   ar
    26    30    31   ar
    27    31    32   ar
    28    32    33   ar
    29    33    34    1
    30    34    35    1
    31     6     7   ar
    32     7     8    1
    33    14    15   ar
    34    15    16   ar
    35    16    17   ar
    36    17    18   ar
    37    18    19   ar
    38    19    10   ar
    39    18    13   ar
    40     7     3   ar
    41    35    22    1
    42    33    25   ar
    43    31    27   ar
@<TRIPOS>MOLECULE
*****
 38 43 0 0 0
SMALL
GASTEIGER

@<TRIPOS>ATOM
      1 C         141.4126  140.7224  156.1603 C.3     1  UNL1        0.0666
      2 S         139.9972  141.1628  156.3898 S.3     1  UNL1       -0.0756
      3 C         138.5476  141.0929  159.9897 C.ar    1  UNL1        0.1669
      4 N         138.0420  139.7885  159.4482 N.ar    1  UNL1       -0.1282
      5 N         138.5235  139.6560  158.0339 N.ar    1  UNL1       -0.1221
      6 C         139.3267  140.8784  157.7011 C.ar    1  UNL1        0.1932
      7 N         139.3415  141.7664  158.9099 N.ar    1  UNL1       -0.2884
      8 C         140.0296  143.0948  159.0197 C.3     1  UNL1        0.1340
      9 C         138.5709  137.9590  166.1076 C.3     1  UNL1        0.0521
     10 C         138.5038  138.8766  164.9229 C.ar    1  UNL1        0.0593
     11 C         138.7491  138.3400  163.5438 C.ar    1  UNL1        0.0147
     12 C         138.6819  139.2576  162.3591 C.ar    1  UNL1        0.0028
     13 C         138.3694  140.7118  162.5535 C.ar    1  UNL1        0.0206
     14 C         138.3023  141.6294  161.3687 C.ar    1  UNL1        0.0374
     15 C         137.9898  143.0835  161.5633 C.ar    1  UNL1        0.0031
     16 C         137.7444  143.6201  162.9424 C.ar    1  UNL1        0.0016
     17 C         137.8116  142.7025  164.1270 C.ar    1  UNL1        0.0191
     18 C         138.1241  141.2484  163.9326 C.ar    1  UNL1        0.0810
     19 N         138.1912  140.3308  165.1173 N.ar    1  UNL1       -0.2497
     20 C         141.8829  139.4015  156.6934 C.3     1  UNL1        0.0294
     21 C         143.0578  139.3438  157.6242 C.3     1  UNL1        0.0730
     22 N         142.8465  139.4448  159.1058 N.3     1  UNL1       -0.2720
     23 C         142.5192  140.8136  159.6247 C.3     1  UNL1        0.0768
     24 C         142.2551  141.2394  161.0386 C.3     1  UNL1        0.0434
     25 C         142.2530  140.4014  162.2826 C.ar    1  UNL1       -0.0230
     26 C         141.9393  141.2242  163.4970 C.ar    1  UNL1        0.0178
     27 C         141.8871  140.5764  164.8489 C.ar    1  UNL1        0.1182
     28 N         141.6054  141.1269  166.2155 N.ar    1  UNL1       -0.2121
     29 C         141.6928  139.9965  167.1977 C.ar    1  UNL1        0.2052
     30 O         142.0286  138.7475  166.4381 O.2     1  UNL1       -0.4384
     31 C         142.1487  139.1058  164.9865 C.ar    1  UNL1        0.1640
     32 C         142.4624  138.2830  163.7722 C.ar    1  UNL1        0.0346
     33 C         142.5145  138.9308  162.4203 C.ar    1  UNL1       -0.0216
     34 C         142.8428  137.9349  161.3477 C.3     1  UNL1        0.0434
     35 C         142.9905  138.1637  159.8726 C.3     1  UNL1        0.0768
     36 C         141.4816  140.0976  168.6793 C.3     1  UNL1        0.0766
     37 C         142.6620  140.1770  169.6014 C.3     1  UNL1        0.0097
     38 C         140.0900  140.1193  169.2388 C.3     1  UNL1        0.0097
@<TRIPOS>BOND
     1     9    10    1
     2    10    11   ar
     3    11    12   ar
     4    12    13   ar
     5    13    14   ar
     6    14     3    1
     7     3     4   ar
     8     4     5   ar
     9     5     6   ar
    10     6     2    1
    11     2     1    1
    12     1    20    1
    13    20    21    1
    14    21    22    1
    15    22    23    1
    16    23    24    1
    17    24    25    1
    18    25    26   ar
    19    26    27   ar
    20    27    28   ar
    21    28    29   ar
    22    29    36    1
    23    36    37    1
    24    36    38    1
    25    29    30   ar
    26    30    31   ar
    27    31    32   ar
    28    32    33   ar
    29    33    34    1
    30    34    35    1
    31     6     7   ar
    32     7     8    1
    33    14    15   ar
    34    15    16   ar
    35    16    17   ar
    36    17    18   ar
    37    18    19   ar
    38    19    10   ar
    39    18    13   ar
    40     7     3   ar
    41    35    22    1
    42    33    25   ar
    43    31    27   ar
@<TRIPOS>MOLECULE
*****
 38 43 0 0 0
SMALL
GASTEIGER

@<TRIPOS>ATOM
      1 C         143.3746  140.8224  157.0824 C.3     1  UNL1        0.0666
      2 S         142.5554  139.6361  157.4966 S.3     1  UNL1       -0.0756
      3 C         141.8292  139.3737  161.3004 C.ar    1  UNL1        0.1669
      4 N         140.4408  139.5090  160.7489 N.ar    1  UNL1       -0.1282
      5 N         140.5439  139.6238  159.2569 N.ar    1  UNL1       -0.1221
      6 C         141.9960  139.5594  158.8862 C.ar    1  UNL1        0.1932
      7 N         142.7903  139.4049  160.1492 N.ar    1  UNL1       -0.2884
      8 C         144.2836  139.2999  160.2443 C.3     1  UNL1        0.1340
      9 C         137.8853  139.1029  166.9239 C.3     1  UNL1        0.0521
     10 C         138.9622  139.1352  165.8801 C.ar    1  UNL1        0.0593
     11 C         138.5987  139.2768  164.4317 C.ar    1  UNL1        0.0147
     12 C         139.6756  139.3091  163.3879 C.ar    1  UNL1        0.0028
     13 C         141.1158  139.1998  163.7926 C.ar    1  UNL1        0.0206
     14 C         142.1926  139.2321  162.7487 C.ar    1  UNL1        0.0374
     15 C         143.6328  139.1228  163.1535 C.ar    1  UNL1        0.0031
     16 C         143.9963  138.9812  164.6019 C.ar    1  UNL1        0.0016
     17 C         142.9195  138.9489  165.6456 C.ar    1  UNL1        0.0191
     18 C         141.4793  139.0582  165.2410 C.ar    1  UNL1        0.0810
     19 N         140.4024  139.0259  166.2848 N.ar    1  UNL1       -0.2497
     20 C         142.9029  142.2093  157.4053 C.3     1  UNL1        0.0294
     21 C         143.6128  143.0187  158.4498 C.3     1  UNL1        0.0730
     22 N         143.1717  142.9478  159.8817 N.3     1  UNL1       -0.2720
     23 C         141.6925  143.0426  160.1124 C.3     1  UNL1        0.0768
     24 C         140.9443  143.0044  161.4120 C.3     1  UNL1        0.0434
     25 C         141.4905  142.8622  162.8017 C.ar    1  UNL1       -0.0230
     26 C         140.3938  142.8705  163.8250 C.ar    1  UNL1        0.0178
     27 C         140.7263  142.7395  165.2818 C.ar    1  UNL1        0.1182
     28 N         139.8651  142.7151  166.5097 N.ar    1  UNL1       -0.2121
     29 C         140.7621  142.5608  167.7020 C.ar    1  UNL1        0.2052
     30 O         142.1776  142.4898  167.2110 O.2     1  UNL1       -0.4384
     31 C         142.1556  142.6002  165.7154 C.ar    1  UNL1        0.1640
     32 C         143.2523  142.5919  164.6920 C.ar    1  UNL1        0.0346
     33 C         142.9198  142.7229  163.2352 C.ar    1  UNL1       -0.0216
     34 C         144.1558  142.6915  162.3860 C.3     1  UNL1        0.0434
     35 C         144.2678  142.7916  160.8935 C.3     1  UNL1        0.0768
     36 C         140.3208  142.4899  169.1339 C.3     1  UNL1        0.0766
     37 C         139.8090  141.1976  169.6979 C.3     1  UNL1        0.0097
     38 C         140.3914  143.7113  170.0018 C.3     1  UNL1        0.0097
@<TRIPOS>BOND
     1     9    10    1
     2    10    11   ar
     3    11    12   ar
     4    12    13   ar
     5    13    14   ar
     6    14     3    1
     7     3     4   ar
     8     4     5   ar
     9     5     6   ar
    10     6     2    1
    11     2     1    1
    12     1    20    1
    13    20    21    1
    14    21    22    1
    15    22    23    1
    16    23    24    1
    17    24    25    1
    18    25    26   ar
    19    26    27   ar
    20    27    28   ar
    21    28    29   ar
    22    29    36    1
    23    36    37    1
    24    36    38    1
    25    29    30   ar
    26    30    31   ar
    27    31    32   ar
    28    32    33   ar
    29    33    34    1
    30    34    35    1
    31     6     7   ar
    32     7     8    1
    33    14    15   ar
    34    15    16   ar
    35    16    17   ar
    36    17    18   ar
    37    18    19   ar
    38    19    10   ar
    39    18    13   ar
    40     7     3   ar
    41    35    22    1
    42    33    25   ar
    43    31    27   ar
