@<TRIPOS>MOLECULE
*****
 37 41 0 0 0
SMALL
GASTEIGER

@<TRIPOS>ATOM
      1 N         137.8557  142.9440  163.0636 N.3     1  UNL1       -0.2687
      2 C         137.7215  141.8027  164.0278 C.3     1  UNL1        0.0737
      3 C         137.7351  140.3899  163.5241 C.3     1  UNL1        0.0359
      4 C         137.8830  140.1183  162.0564 C.3     1  UNL1        0.0901
      5 C         138.0172  141.2596  161.0923 C.3     1  UNL1        0.1911
      6 F         138.1650  140.9879  159.6244 F       1  UNL1       -0.2343
      7 C         138.0036  142.6724  161.5959 C.3     1  UNL1        0.1092
      8 N         137.8966  138.7054  161.5527 N.3     1  UNL1       -0.2913
      9 H         137.3160  138.6861  160.7143 H       1  UNL1        0.1236
     10 C         139.1971  138.0496  161.1940 C.3     1  UNL1        0.1152
     11 C         140.3968  138.2309  162.0758 C.ar    1  UNL1        0.0765
     12 C         140.5466  137.4033  163.3178 C.ar    1  UNL1        0.0193
     13 C         141.7464  137.5846  164.1997 C.ar    1  UNL1        0.0411
     14 C         142.7963  138.5935  163.8396 C.ar    1  UNL1        0.1708
     15 C         142.6464  139.4212  162.5976 C.ar    1  UNL1        0.1682
     16 N         141.4467  139.2399  161.7157 N.ar    1  UNL1       -0.2304
     17 N         143.6964  140.4302  162.2375 N.am    1  UNL1       -0.2639
     18 C         144.8961  140.6115  163.1194 C.2     1  UNL1        0.2718
     19 O         145.9460  141.6205  162.7593 O.2     1  UNL1       -0.2707
     20 C         145.0460  139.7838  164.3614 C.3     1  UNL1        0.2898
     21 O         143.9961  138.7748  164.7215 O.3     1  UNL1       -0.4628
     22 H         143.5980  140.9734  161.4223 H       1  UNL1        0.1565
     23 C         137.8421  144.3569  163.5673 C.3     1  UNL1        0.0970
     24 C         138.8915  144.8183  164.5347 C.3     1  UNL1        0.1264
     25 C         141.0191  141.9309  167.2524 C.ar    1  UNL1        0.1593
     26 C         142.4612  141.5969  167.0103 C.ar    1  UNL1        0.1357
     27 N         143.1942  142.2254  165.8624 N.ar    1  UNL1       -0.2392
     28 C         142.4850  143.1878  164.9565 C.ar    1  UNL1        0.0975
     29 C         143.2179  143.8163  163.8085 C.ar    1  UNL1        0.0255
     30 C         142.5088  144.7788  162.9026 C.ar    1  UNL1        0.0623
     31 C         141.0665  145.1128  163.1447 C.ar    1  UNL1        0.2611
     32 O         140.3573  146.0753  162.2388 O.2     1  UNL1       -0.2670
     33 N         140.3336  144.4843  164.2927 N.ar    1  UNL1       -0.2926
     34 C         141.0429  143.5218  165.1986 C.ar    1  UNL1        0.0832
     35 C         140.3099  142.8934  166.3465 C.ar    1  UNL1        0.0573
     36 C         139.4703  140.0630  168.1810 C.3     1  UNL1        0.2525
     37 O         140.2862  141.3024  168.4004 O.3     1  UNL1       -0.4698
@<TRIPOS>BOND
     1    36    37    1
     2    37    25    1
     3    25    26   ar
     4    26    27   ar
     5    27    28   ar
     6    28    29   ar
     7    29    30   ar
     8    30    31   ar
     9    31    32    2
    10    31    33   ar
    11    33    24    1
    12    24    23    1
    13    23     1    1
    14     1     2    1
    15     2     3    1
    16     3     4    1
    17     4     8    1
    18     8    10    1
    19    10    11    1
    20    11    12   ar
    21    12    13   ar
    22    13    14   ar
    23    14    15   ar
    24    15    16   ar
    25    15    17    1
    26    17    18   am
    27    18    19    2
    28    18    20    1
    29    20    21    1
    30     4     5    1
    31     5     6    1
    32     5     7    1
    33    33    34   ar
    34    34    35   ar
    35    35    25   ar
    36    34    28   ar
    37     7     1    1
    38    16    11   ar
    39    21    14    1
    40     8     9    1
    41    17    22    1
@<TRIPOS>MOLECULE
*****
 37 41 0 0 0
SMALL
GASTEIGER

@<TRIPOS>ATOM
      1 N         141.6198  138.5891  164.4831 N.3     1  UNL1       -0.2687
      2 C         142.7758  138.7904  165.4175 C.3     1  UNL1        0.0737
      3 C         144.0412  139.4233  164.9195 C.3     1  UNL1        0.0359
      4 C         144.1507  139.8549  163.4871 C.3     1  UNL1        0.0901
      5 C         142.9946  139.6537  162.5528 C.3     1  UNL1        0.1911
      6 F         143.1041  140.0853  161.1203 F       1  UNL1       -0.2343
      7 C         141.7292  139.0207  163.0507 C.3     1  UNL1        0.1092
      8 N         145.4161  140.4879  162.9891 N.3     1  UNL1       -0.2913
      9 H         145.4845  140.2673  161.9956 H       1  UNL1        0.1236
     10 C         145.6153  141.9690  163.1185 C.3     1  UNL1        0.1152
     11 C         144.4372  142.8940  163.0377 C.ar    1  UNL1        0.0765
     12 C         143.9028  143.5381  164.2825 C.ar    1  UNL1        0.0193
     13 C         142.7247  144.4631  164.2018 C.ar    1  UNL1        0.0411
     14 C         142.0811  144.7440  162.8764 C.ar    1  UNL1        0.1708
     15 C         142.6156  144.0998  161.6316 C.ar    1  UNL1        0.1682
     16 N         143.7936  143.1748  161.7123 N.ar    1  UNL1       -0.2304
     17 N         141.9719  144.3807  160.3061 N.am    1  UNL1       -0.2639
     18 C         140.7938  145.3057  160.2254 C.2     1  UNL1        0.2718
     19 O         140.1502  145.5866  158.8999 O.2     1  UNL1       -0.2707
     20 C         140.2594  145.9499  161.4702 C.3     1  UNL1        0.2898
     21 O         140.9030  145.6690  162.7956 O.3     1  UNL1       -0.4628
     22 H         142.3227  143.9579  159.4891 H       1  UNL1        0.1565
     23 C         140.3543  137.9561  164.9811 C.3     1  UNL1        0.0970
     24 C         139.3606  138.7728  165.7529 C.3     1  UNL1        0.1264
     25 C         137.8466  141.4970  162.5070 C.ar    1  UNL1        0.1593
     26 C         138.0281  142.9810  162.6281 C.ar    1  UNL1        0.1357
     27 N         138.7143  143.5570  163.8312 N.ar    1  UNL1       -0.2392
     28 C         139.2190  142.6489  164.9132 C.ar    1  UNL1        0.0975
     29 C         139.9051  143.2249  166.1163 C.ar    1  UNL1        0.0255
     30 C         140.4098  142.3168  167.1982 C.ar    1  UNL1        0.0623
     31 C         140.2283  140.8327  167.0771 C.ar    1  UNL1        0.2611
     32 O         140.7330  139.9247  168.1591 O.2     1  UNL1       -0.2670
     33 N         139.5421  140.2568  165.8741 N.ar    1  UNL1       -0.2926
     34 C         139.0374  141.1649  164.7920 C.ar    1  UNL1        0.0832
     35 C         138.3513  140.5890  163.5890 C.ar    1  UNL1        0.0573
     36 C         137.5287  139.5519  160.8142 C.3     1  UNL1        0.2525
     37 O         137.1604  140.9211  161.3039 O.3     1  UNL1       -0.4698
@<TRIPOS>BOND
     1    36    37    1
     2    37    25    1
     3    25    26   ar
     4    26    27   ar
     5    27    28   ar
     6    28    29   ar
     7    29    30   ar
     8    30    31   ar
     9    31    32    2
    10    31    33   ar
    11    33    24    1
    12    24    23    1
    13    23     1    1
    14     1     2    1
    15     2     3    1
    16     3     4    1
    17     4     8    1
    18     8    10    1
    19    10    11    1
    20    11    12   ar
    21    12    13   ar
    22    13    14   ar
    23    14    15   ar
    24    15    16   ar
    25    15    17    1
    26    17    18   am
    27    18    19    2
    28    18    20    1
    29    20    21    1
    30     4     5    1
    31     5     6    1
    32     5     7    1
    33    33    34   ar
    34    34    35   ar
    35    35    25   ar
    36    34    28   ar
    37     7     1    1
    38    16    11   ar
    39    21    14    1
    40     8     9    1
    41    17    22    1
@<TRIPOS>MOLECULE
*****
 37 41 0 0 0
SMALL
GASTEIGER

@<TRIPOS>ATOM
      1 N         144.3885  139.8674  163.7029 N.3     1  UNL1       -0.2687
      2 C         143.5587  139.3250  164.8286 C.3     1  UNL1        0.0737
      3 C         142.4234  138.3883  164.5397 C.3     1  UNL1        0.0359
      4 C         142.1179  137.9940  163.1251 C.3     1  UNL1        0.0901
      5 C         142.9477  138.5364  161.9994 C.3     1  UNL1        0.1911
      6 F         142.6421  138.1420  160.5847 F       1  UNL1       -0.2343
      7 C         144.0830  139.4731  162.2883 C.3     1  UNL1        0.1092
      8 N         140.9825  137.0572  162.8361 N.3     1  UNL1       -0.2913
      9 H         140.8810  136.4563  163.6541 H       1  UNL1        0.1236
     10 C         139.6197  137.6030  162.5280 C.3     1  UNL1        0.1152
     11 C         139.1948  138.9243  163.0967 C.ar    1  UNL1        0.0765
     12 C         138.6179  138.9950  164.4795 C.ar    1  UNL1        0.0193
     13 C         138.1929  140.3164  165.0483 C.ar    1  UNL1        0.0411
     14 C         138.3450  141.5670  164.2343 C.ar    1  UNL1        0.1708
     15 C         138.9221  141.4964  162.8514 C.ar    1  UNL1        0.1682
     16 N         139.3469  140.1750  162.2827 N.ar    1  UNL1       -0.2304
     17 N         139.0742  142.7471  162.0374 N.am    1  UNL1       -0.2639
     18 C         138.6492  144.0684  162.6062 C.2     1  UNL1        0.2718
     19 O         138.8013  145.3191  161.7922 O.2     1  UNL1       -0.2707
     20 C         138.0722  144.1391  163.9890 C.3     1  UNL1        0.2898
     21 O         137.9201  142.8884  164.8030 O.3     1  UNL1       -0.4628
     22 H         139.4529  142.7007  161.1299 H       1  UNL1        0.1565
     23 C         145.5239  140.8042  163.9919 C.3     1  UNL1        0.0970
     24 C         145.6712  142.0705  163.2014 C.3     1  UNL1        0.1264
     25 C         143.5951  142.7388  159.2653 C.ar    1  UNL1        0.1593
     26 C         142.4507  143.7042  159.1754 C.ar    1  UNL1        0.1357
     27 N         141.9982  144.4469  160.3976 N.ar    1  UNL1       -0.2392
     28 C         142.6902  144.2241  161.7096 C.ar    1  UNL1        0.0975
     29 C         142.2377  144.9668  162.9318 C.ar    1  UNL1        0.0255
     30 C         142.9297  144.7440  164.2438 C.ar    1  UNL1        0.0623
     31 C         144.0743  143.7786  164.3337 C.ar    1  UNL1        0.2611
     32 O         144.7663  143.5558  165.6458 O.2     1  UNL1       -0.2670
     33 N         144.5267  143.0359  163.1116 N.ar    1  UNL1       -0.2926
     34 C         143.8347  143.2587  161.7995 C.ar    1  UNL1        0.0832
     35 C         144.2871  142.5160  160.5773 C.ar    1  UNL1        0.0573
     36 C         144.1106  140.4975  158.0566 C.3     1  UNL1        0.2525
     37 O         144.0476  141.9961  158.0431 O.3     1  UNL1       -0.4698
@<TRIPOS>BOND
     1    36    37    1
     2    37    25    1
     3    25    26   ar
     4    26    27   ar
     5    27    28   ar
     6    28    29   ar
     7    29    30   ar
     8    30    31   ar
     9    31    32    2
    10    31    33   ar
    11    33    24    1
    12    24    23    1
    13    23     1    1
    14     1     2    1
    15     2     3    1
    16     3     4    1
    17     4     8    1
    18     8    10    1
    19    10    11    1
    20    11    12   ar
    21    12    13   ar
    22    13    14   ar
    23    14    15   ar
    24    15    16   ar
    25    15    17    1
    26    17    18   am
    27    18    19    2
    28    18    20    1
    29    20    21    1
    30     4     5    1
    31     5     6    1
    32     5     7    1
    33    33    34   ar
    34    34    35   ar
    35    35    25   ar
    36    34    28   ar
    37     7     1    1
    38    16    11   ar
    39    21    14    1
    40     8     9    1
    41    17    22    1
@<TRIPOS>MOLECULE
*****
 37 41 0 0 0
SMALL
GASTEIGER

@<TRIPOS>ATOM
      1 N         142.7693  144.2503  163.3800 N.3     1  UNL1       -0.2687
      2 C         142.6149  143.8768  161.9355 C.3     1  UNL1        0.0737
      3 C         141.2465  143.7713  161.3303 C.3     1  UNL1        0.0359
      4 C         140.0325  144.0393  162.1696 C.3     1  UNL1        0.0901
      5 C         140.1870  144.4127  163.6141 C.3     1  UNL1        0.1911
      6 F         138.9730  144.6807  164.4534 F       1  UNL1       -0.2343
      7 C         141.5554  144.5182  164.2193 C.3     1  UNL1        0.1092
      8 N         138.6641  143.9338  161.5644 N.3     1  UNL1       -0.2913
      9 H         138.6290  144.6047  160.7969 H       1  UNL1        0.1236
     10 C         138.1859  142.6224  161.0153 C.3     1  UNL1        0.1152
     11 C         138.4100  141.3581  161.7908 C.ar    1  UNL1        0.0765
     12 C         139.0051  140.1589  161.1144 C.ar    1  UNL1        0.0193
     13 C         139.2292  138.8946  161.8899 C.ar    1  UNL1        0.0411
     14 C         138.8581  138.8296  163.3418 C.ar    1  UNL1        0.1708
     15 C         138.2629  140.0289  164.0182 C.ar    1  UNL1        0.1682
     16 N         138.0388  141.2931  163.2427 N.ar    1  UNL1       -0.2304
     17 N         137.8917  139.9639  165.4701 N.am    1  UNL1       -0.2639
     18 C         138.1158  138.6995  166.2456 C.2     1  UNL1        0.2718
     19 O         137.7447  138.6345  167.6975 O.2     1  UNL1       -0.2707
     20 C         138.7110  137.5003  165.5692 C.3     1  UNL1        0.2898
     21 O         139.0821  137.5653  164.1173 O.3     1  UNL1       -0.4628
     22 H         137.5011  140.7510  165.9141 H       1  UNL1        0.1565
     23 C         144.1378  144.3558  163.9852 C.3     1  UNL1        0.0970
     24 C         144.6679  143.2426  164.8396 C.3     1  UNL1        0.1264
     25 C         141.8826  141.3430  167.8202 C.ar    1  UNL1        0.1593
     26 C         141.4002  139.9389  167.6068 C.ar    1  UNL1        0.1357
     27 N         141.8462  139.1679  166.3998 N.ar    1  UNL1       -0.2392
     28 C         142.7746  139.8011  165.4063 C.ar    1  UNL1        0.0975
     29 C         143.2206  139.0301  164.1994 C.ar    1  UNL1        0.0255
     30 C         144.1490  139.6632  163.2059 C.ar    1  UNL1        0.0623
     31 C         144.6315  141.0675  163.4193 C.ar    1  UNL1        0.2611
     32 O         145.5599  141.7007  162.4257 O.2     1  UNL1       -0.2670
     33 N         144.1855  141.8385  164.6262 N.ar    1  UNL1       -0.2926
     34 C         143.2570  141.2052  165.6197 C.ar    1  UNL1        0.0832
     35 C         142.8110  141.9762  166.8266 C.ar    1  UNL1        0.0573
     36 C         140.4088  143.1975  168.8872 C.3     1  UNL1        0.2525
     37 O         141.4366  142.1140  169.0271 O.3     1  UNL1       -0.4698
@<TRIPOS>BOND
     1    36    37    1
     2    37    25    1
     3    25    26   ar
     4    26    27   ar
     5    27    28   ar
     6    28    29   ar
     7    29    30   ar
     8    30    31   ar
     9    31    32    2
    10    31    33   ar
    11    33    24    1
    12    24    23    1
    13    23     1    1
    14     1     2    1
    15     2     3    1
    16     3     4    1
    17     4     8    1
    18     8    10    1
    19    10    11    1
    20    11    12   ar
    21    12    13   ar
    22    13    14   ar
    23    14    15   ar
    24    15    16   ar
    25    15    17    1
    26    17    18   am
    27    18    19    2
    28    18    20    1
    29    20    21    1
    30     4     5    1
    31     5     6    1
    32     5     7    1
    33    33    34   ar
    34    34    35   ar
    35    35    25   ar
    36    34    28   ar
    37     7     1    1
    38    16    11   ar
    39    21    14    1
    40     8     9    1
    41    17    22    1
@<TRIPOS>MOLECULE
*****
 37 41 0 0 0
SMALL
GASTEIGER

@<TRIPOS>ATOM
      1 N         144.4895  140.1020  163.3029 N.3     1  UNL1       -0.2687
      2 C         144.0197  139.9369  161.8880 C.3     1  UNL1        0.0737
      3 C         142.9115  138.9764  161.5729 C.3     1  UNL1        0.0359
      4 C         142.2731  138.1810  162.6728 C.3     1  UNL1        0.0901
      5 C         142.7429  138.3462  164.0877 C.3     1  UNL1        0.1911
      6 F         142.1044  137.5508  165.1876 F       1  UNL1       -0.2343
      7 C         143.8511  139.3067  164.4028 C.3     1  UNL1        0.1092
      8 N         141.1648  137.2205  162.3578 N.3     1  UNL1       -0.2913
      9 H         141.3367  136.3809  162.9110 H       1  UNL1        0.1236
     10 C         139.7384  137.6152  162.6015 C.3     1  UNL1        0.1152
     11 C         139.3024  139.0318  162.3714 C.ar    1  UNL1        0.0765
     12 C         139.2091  139.5703  160.9746 C.ar    1  UNL1        0.0193
     13 C         138.7731  140.9871  160.7445 C.ar    1  UNL1        0.0411
     14 C         138.4304  141.8652  161.9113 C.ar    1  UNL1        0.1708
     15 C         138.5236  141.3266  163.3082 C.ar    1  UNL1        0.1682
     16 N         138.9596  139.9099  163.5383 N.ar    1  UNL1       -0.2304
     17 N         138.1809  142.2047  164.4750 N.am    1  UNL1       -0.2639
     18 C         137.7449  143.6214  164.2449 C.2     1  UNL1        0.2718
     19 O         137.4021  144.4995  165.4117 O.2     1  UNL1       -0.2707
     20 C         137.6516  144.1600  162.8480 C.3     1  UNL1        0.2898
     21 O         137.9944  143.2818  161.6812 O.3     1  UNL1       -0.4628
     22 H         138.2421  141.8512  165.3918 H       1  UNL1        0.1565
     23 C         145.5977  141.0626  163.6179 C.3     1  UNL1        0.0970
     24 C         145.2918  142.3631  164.2998 C.3     1  UNL1        0.1264
     25 C         142.2700  141.8279  167.5911 C.ar    1  UNL1        0.1593
     26 C         140.9061  142.4389  167.4636 C.ar    1  UNL1        0.1357
     27 N         140.5494  143.2284  166.2390 N.ar    1  UNL1       -0.2392
     28 C         141.5566  143.4068  165.1419 C.ar    1  UNL1        0.0975
     29 C         141.2000  144.1962  163.9174 C.ar    1  UNL1        0.0255
     30 C         142.2072  144.3747  162.8203 C.ar    1  UNL1        0.0623
     31 C         143.5712  143.7636  162.9478 C.ar    1  UNL1        0.2611
     32 O         144.5785  143.9420  161.8507 O.2     1  UNL1       -0.2670
     33 N         143.9279  142.9741  164.1723 N.ar    1  UNL1       -0.2926
     34 C         142.9206  142.7958  165.2694 C.ar    1  UNL1        0.0832
     35 C         143.2772  142.0063  166.4940 C.ar    1  UNL1        0.0573
     36 C         142.2584  139.5872  168.9060 C.3     1  UNL1        0.2525
     37 O         142.6267  141.0384  168.8156 O.3     1  UNL1       -0.4698
@<TRIPOS>BOND
     1    36    37    1
     2    37    25    1
     3    25    26   ar
     4    26    27   ar
     5    27    28   ar
     6    28    29   ar
     7    29    30   ar
     8    30    31   ar
     9    31    32    2
    10    31    33   ar
    11    33    24    1
    12    24    23    1
    13    23     1    1
    14     1     2    1
    15     2     3    1
    16     3     4    1
    17     4     8    1
    18     8    10    1
    19    10    11    1
    20    11    12   ar
    21    12    13   ar
    22    13    14   ar
    23    14    15   ar
    24    15    16   ar
    25    15    17    1
    26    17    18   am
    27    18    19    2
    28    18    20    1
    29    20    21    1
    30     4     5    1
    31     5     6    1
    32     5     7    1
    33    33    34   ar
    34    34    35   ar
    35    35    25   ar
    36    34    28   ar
    37     7     1    1
    38    16    11   ar
    39    21    14    1
    40     8     9    1
    41    17    22    1
@<TRIPOS>MOLECULE
*****
 37 41 0 0 0
SMALL
GASTEIGER

@<TRIPOS>ATOM
      1 N         140.6716  140.1089  160.6002 N.3     1  UNL1       -0.2687
      2 C         141.4012  141.4151  160.7079 C.3     1  UNL1        0.0737
      3 C         142.8059  141.4485  161.2330 C.3     1  UNL1        0.0359
      4 C         143.4810  140.1757  161.6504 C.3     1  UNL1        0.0901
      5 C         142.7514  138.8696  161.5427 C.3     1  UNL1        0.1911
      6 F         143.4266  137.5967  161.9601 F       1  UNL1       -0.2343
      7 C         141.3467  138.8361  161.0176 C.3     1  UNL1        0.1092
      8 N         144.8857  140.2091  162.1755 N.3     1  UNL1       -0.2913
      9 H         145.4334  140.7623  161.5164 H       1  UNL1        0.1236
     10 C         145.1628  140.7638  163.5414 C.3     1  UNL1        0.1152
     11 C         144.1920  140.5240  164.6594 C.ar    1  UNL1        0.0765
     12 C         143.9499  139.1296  165.1562 C.ar    1  UNL1        0.0193
     13 C         142.9790  138.8897  166.2743 C.ar    1  UNL1        0.0411
     14 C         142.2503  140.0443  166.8954 C.ar    1  UNL1        0.1708
     15 C         142.4924  141.4388  166.3985 C.ar    1  UNL1        0.1682
     16 N         143.4632  141.6786  165.2805 N.ar    1  UNL1       -0.2304
     17 N         141.7637  142.5934  167.0196 N.am    1  UNL1       -0.2639
     18 C         140.7928  142.3536  168.1377 C.2     1  UNL1        0.2718
     19 O         140.0641  143.5082  168.7588 O.2     1  UNL1       -0.2707
     20 C         140.5507  140.9592  168.6346 C.3     1  UNL1        0.2898
     21 O         141.2795  139.8045  168.0134 O.3     1  UNL1       -0.4628
     22 H         141.9226  143.5087  166.6935 H       1  UNL1        0.1565
     23 C         139.2669  140.0755  160.0751 C.3     1  UNL1        0.0970
     24 C         138.1107  140.2494  161.0147 C.3     1  UNL1        0.1264
     25 C         138.5858  144.2894  162.9390 C.ar    1  UNL1        0.1593
     26 C         138.8283  144.3929  164.4156 C.ar    1  UNL1        0.1357
     27 N         138.9125  143.1498  165.2508 N.ar    1  UNL1       -0.2392
     28 C         138.7541  141.8032  164.6094 C.ar    1  UNL1        0.0975
     29 C         138.8383  140.5600  165.4446 C.ar    1  UNL1        0.0255
     30 C         138.6799  139.2134  164.8032 C.ar    1  UNL1        0.0623
     31 C         138.4374  139.1098  163.3265 C.ar    1  UNL1        0.2611
     32 O         138.2790  137.7632  162.6851 O.2     1  UNL1       -0.2670
     33 N         138.3532  140.3530  162.4913 N.ar    1  UNL1       -0.2926
     34 C         138.5116  141.6997  163.1328 C.ar    1  UNL1        0.0832
     35 C         138.4274  142.9428  162.2976 C.ar    1  UNL1        0.0573
     36 C         139.7518  146.2758  161.7371 C.3     1  UNL1        0.2525
     37 O         138.5016  145.5325  162.1038 O.3     1  UNL1       -0.4698
@<TRIPOS>BOND
     1    36    37    1
     2    37    25    1
     3    25    26   ar
     4    26    27   ar
     5    27    28   ar
     6    28    29   ar
     7    29    30   ar
     8    30    31   ar
     9    31    32    2
    10    31    33   ar
    11    33    24    1
    12    24    23    1
    13    23     1    1
    14     1     2    1
    15     2     3    1
    16     3     4    1
    17     4     8    1
    18     8    10    1
    19    10    11    1
    20    11    12   ar
    21    12    13   ar
    22    13    14   ar
    23    14    15   ar
    24    15    16   ar
    25    15    17    1
    26    17    18   am
    27    18    19    2
    28    18    20    1
    29    20    21    1
    30     4     5    1
    31     5     6    1
    32     5     7    1
    33    33    34   ar
    34    34    35   ar
    35    35    25   ar
    36    34    28   ar
    37     7     1    1
    38    16    11   ar
    39    21    14    1
    40     8     9    1
    41    17    22    1
@<TRIPOS>MOLECULE
*****
 37 41 0 0 0
SMALL
GASTEIGER

@<TRIPOS>ATOM
      1 N         143.1626  140.3839  160.5678 N.3     1  UNL1       -0.2687
      2 C         143.9962  139.2486  161.0837 C.3     1  UNL1        0.0737
      3 C         143.3452  138.1112  161.8132 C.3     1  UNL1        0.0359
      4 C         141.8605  138.1090  162.0269 C.3     1  UNL1        0.0901
      5 C         141.0269  139.2444  161.5111 C.3     1  UNL1        0.1911
      6 F         139.5421  139.2422  161.7248 F       1  UNL1       -0.2343
      7 C         141.6779  140.3818  160.7815 C.3     1  UNL1        0.1092
      8 N         141.2094  136.9716  162.7566 N.3     1  UNL1       -0.2913
      9 H         141.6464  136.1150  162.4165 H       1  UNL1        0.1236
     10 C         141.2566  136.9165  164.2548 C.3     1  UNL1        0.1152
     11 C         140.9659  138.1481  165.0601 C.ar    1  UNL1        0.0765
     12 C         139.5683  138.6889  165.1254 C.ar    1  UNL1        0.0193
     13 C         139.2775  139.9206  165.9307 C.ar    1  UNL1        0.0411
     14 C         140.3844  140.6114  166.6707 C.ar    1  UNL1        0.1708
     15 C         141.7820  140.0706  166.6054 C.ar    1  UNL1        0.1682
     16 N         142.0727  138.8390  165.8001 N.ar    1  UNL1       -0.2304
     17 N         142.8889  140.7615  167.3454 N.am    1  UNL1       -0.2639
     18 C         142.5981  141.9932  168.1507 C.2     1  UNL1        0.2718
     19 O         143.7049  142.6840  168.8907 O.2     1  UNL1       -0.2707
     20 C         141.2005  142.5339  168.2160 C.3     1  UNL1        0.2898
     21 O         140.0936  141.8430  167.4760 O.3     1  UNL1       -0.4628
     22 H         143.8062  140.4065  167.3025 H       1  UNL1        0.1565
     23 C         143.8137  141.5214  159.8382 C.3     1  UNL1        0.0970
     24 C         144.4325  142.6501  160.6083 C.3     1  UNL1        0.1264
     25 C         140.6528  144.9863  161.3196 C.ar    1  UNL1        0.1593
     26 C         140.2017  145.2744  162.7208 C.ar    1  UNL1        0.1357
     27 N         141.0104  144.7837  163.8850 N.ar    1  UNL1       -0.2392
     28 C         142.2703  144.0050  163.6479 C.ar    1  UNL1        0.0975
     29 C         143.0791  143.5143  164.8120 C.ar    1  UNL1        0.0255
     30 C         144.3390  142.7356  164.5749 C.ar    1  UNL1        0.0623
     31 C         144.7901  142.4475  163.1736 C.ar    1  UNL1        0.2611
     32 O         146.0500  141.6688  162.9365 O.2     1  UNL1       -0.2670
     33 N         143.9814  142.9382  162.0095 N.ar    1  UNL1       -0.2926
     34 C         142.7215  143.7170  162.2466 C.ar    1  UNL1        0.0832
     35 C         141.9127  144.2076  161.0825 C.ar    1  UNL1        0.0573
     36 C         140.4545  145.5274  158.7863 C.3     1  UNL1        0.2525
     37 O         139.8441  145.4770  160.1555 O.3     1  UNL1       -0.4698
@<TRIPOS>BOND
     1    36    37    1
     2    37    25    1
     3    25    26   ar
     4    26    27   ar
     5    27    28   ar
     6    28    29   ar
     7    29    30   ar
     8    30    31   ar
     9    31    32    2
    10    31    33   ar
    11    33    24    1
    12    24    23    1
    13    23     1    1
    14     1     2    1
    15     2     3    1
    16     3     4    1
    17     4     8    1
    18     8    10    1
    19    10    11    1
    20    11    12   ar
    21    12    13   ar
    22    13    14   ar
    23    14    15   ar
    24    15    16   ar
    25    15    17    1
    26    17    18   am
    27    18    19    2
    28    18    20    1
    29    20    21    1
    30     4     5    1
    31     5     6    1
    32     5     7    1
    33    33    34   ar
    34    34    35   ar
    35    35    25   ar
    36    34    28   ar
    37     7     1    1
    38    16    11   ar
    39    21    14    1
    40     8     9    1
    41    17    22    1
@<TRIPOS>MOLECULE
*****
 37 41 0 0 0
SMALL
GASTEIGER

@<TRIPOS>ATOM
      1 N         142.5722  144.1673  160.6359 N.3     1  UNL1       -0.2687
      2 C         143.3370  143.1103  159.8957 C.3     1  UNL1        0.0737
      3 C         144.3991  142.3204  160.6012 C.3     1  UNL1        0.0359
      4 C         144.6965  142.5875  162.0469 C.3     1  UNL1        0.0901
      5 C         143.9318  143.6444  162.7871 C.3     1  UNL1        0.1911
      6 F         144.2292  143.9115  164.2329 F       1  UNL1       -0.2343
      7 C         142.8696  144.4343  162.0816 C.3     1  UNL1        0.1092
      8 N         145.7588  141.7976  162.7525 N.3     1  UNL1       -0.2913
      9 H         146.3713  142.4719  163.2112 H       1  UNL1        0.1236
     10 C         145.3753  140.7848  163.7904 C.3     1  UNL1        0.1152
     11 C         144.1243  139.9746  163.6215 C.ar    1  UNL1        0.0765
     12 C         144.0683  138.8877  162.5894 C.ar    1  UNL1        0.0193
     13 C         142.8173  138.0774  162.4205 C.ar    1  UNL1        0.0411
     14 C         141.6222  138.3542  163.2838 C.ar    1  UNL1        0.1708
     15 C         141.6783  139.4412  164.3160 C.ar    1  UNL1        0.1682
     16 N         142.9293  140.2514  164.4849 N.ar    1  UNL1       -0.2304
     17 N         140.4832  139.7180  165.1793 N.am    1  UNL1       -0.2639
     18 C         139.2322  138.9078  165.0105 C.2     1  UNL1        0.2718
     19 O         138.0372  139.1845  165.8738 O.2     1  UNL1       -0.2707
     20 C         139.1762  137.8208  163.9783 C.3     1  UNL1        0.2898
     21 O         140.3712  137.5441  163.1150 O.3     1  UNL1       -0.4628
     22 H         140.5200  140.4314  165.8568 H       1  UNL1        0.1565
     23 C         141.5099  144.9572  159.9303 C.3     1  UNL1        0.0970
     24 C         140.1193  144.4072  159.8138 C.3     1  UNL1        0.1264
     25 C         138.3555  140.2766  160.0918 C.ar    1  UNL1        0.1593
     26 C         137.6072  139.8620  161.3239 C.ar    1  UNL1        0.1357
     27 N         137.4469  140.8243  162.4633 N.ar    1  UNL1       -0.2392
     28 C         138.0348  142.2011  162.3707 C.ar    1  UNL1        0.0975
     29 C         137.8744  143.1634  163.5102 C.ar    1  UNL1        0.0255
     30 C         138.4623  144.5402  163.4175 C.ar    1  UNL1        0.0623
     31 C         139.2106  144.9549  162.1853 C.ar    1  UNL1        0.2611
     32 O         139.7986  146.3317  162.0927 O.2     1  UNL1       -0.2670
     33 N         139.3710  143.9926  161.0459 N.ar    1  UNL1       -0.2926
     34 C         138.7830  142.6157  161.1386 C.ar    1  UNL1        0.0832
     35 C         138.9434  141.6535  159.9991 C.ar    1  UNL1        0.0573
     36 C         139.8681  138.7499  158.6320 C.3     1  UNL1        0.2525
     37 O         138.5159  139.3144  158.9523 O.3     1  UNL1       -0.4698
@<TRIPOS>BOND
     1    36    37    1
     2    37    25    1
     3    25    26   ar
     4    26    27   ar
     5    27    28   ar
     6    28    29   ar
     7    29    30   ar
     8    30    31   ar
     9    31    32    2
    10    31    33   ar
    11    33    24    1
    12    24    23    1
    13    23     1    1
    14     1     2    1
    15     2     3    1
    16     3     4    1
    17     4     8    1
    18     8    10    1
    19    10    11    1
    20    11    12   ar
    21    12    13   ar
    22    13    14   ar
    23    14    15   ar
    24    15    16   ar
    25    15    17    1
    26    17    18   am
    27    18    19    2
    28    18    20    1
    29    20    21    1
    30     4     5    1
    31     5     6    1
    32     5     7    1
    33    33    34   ar
    34    34    35   ar
    35    35    25   ar
    36    34    28   ar
    37     7     1    1
    38    16    11   ar
    39    21    14    1
    40     8     9    1
    41    17    22    1
@<TRIPOS>MOLECULE
*****
 37 41 0 0 0
SMALL
GASTEIGER

@<TRIPOS>ATOM
      1 N         141.3562  138.3053  163.4007 N.3     1  UNL1       -0.2687
      2 C         141.5735  138.9287  162.0538 C.3     1  UNL1        0.0737
      3 C         142.8630  139.6335  161.7528 C.3     1  UNL1        0.0359
      4 C         143.9350  139.7149  162.7988 C.3     1  UNL1        0.0901
      5 C         143.7177  139.0914  164.1456 C.3     1  UNL1        0.1911
      6 F         144.7899  139.1728  165.1916 F       1  UNL1       -0.2343
      7 C         142.4283  138.3866  164.4466 C.3     1  UNL1        0.1092
      8 N         145.2245  140.4197  162.4978 N.3     1  UNL1       -0.2913
      9 H         145.3541  140.3777  161.4870 H       1  UNL1        0.1236
     10 C         145.4067  141.8536  162.8985 C.3     1  UNL1        0.1152
     11 C         144.2293  142.7828  162.9162 C.ar    1  UNL1        0.0765
     12 C         143.7082  143.3083  164.2209 C.ar    1  UNL1        0.0193
     13 C         142.5308  144.2375  164.2386 C.ar    1  UNL1        0.0411
     14 C         141.8745  144.6412  162.9516 C.ar    1  UNL1        0.1708
     15 C         142.3958  144.1157  161.6469 C.ar    1  UNL1        0.1682
     16 N         143.5731  143.1865  161.6292 N.ar    1  UNL1       -0.2304
     17 N         141.7395  144.5194  160.3599 N.am    1  UNL1       -0.2639
     18 C         140.5621  145.4487  160.3776 C.2     1  UNL1        0.2718
     19 O         139.9059  145.8524  159.0906 O.2     1  UNL1       -0.2707
     20 C         140.0409  145.9741  161.6823 C.3     1  UNL1        0.2898
     21 O         140.6972  145.5704  162.9693 O.3     1  UNL1       -0.4628
     22 H         142.0816  144.1745  159.5035 H       1  UNL1        0.1565
     23 C         140.0667  137.6005  163.7016 C.3     1  UNL1        0.0970
     24 C         138.9477  138.3388  164.3745 C.3     1  UNL1        0.1264
     25 C         140.4490  141.4869  167.2181 C.ar    1  UNL1        0.1593
     26 C         140.2211  142.9387  166.9179 C.ar    1  UNL1        0.1357
     27 N         139.4928  143.3412  165.6699 N.ar    1  UNL1       -0.2392
     28 C         138.9924  142.2919  164.7220 C.ar    1  UNL1        0.0975
     29 C         138.2641  142.6945  163.4740 C.ar    1  UNL1        0.0255
     30 C         137.7637  141.6451  162.5262 C.ar    1  UNL1        0.0623
     31 C         137.9915  140.1932  162.8263 C.ar    1  UNL1        0.2611
     32 O         137.4911  139.1439  161.8785 O.2     1  UNL1       -0.2670
     33 N         138.7199  139.7907  164.0743 N.ar    1  UNL1       -0.2926
     34 C         139.2203  140.8401  165.0222 C.ar    1  UNL1        0.0832
     35 C         139.9486  140.4375  166.2702 C.ar    1  UNL1        0.0573
     36 C         140.6080  140.0199  169.3564 C.3     1  UNL1        0.2525
     37 O         141.1773  141.0843  168.4661 O.3     1  UNL1       -0.4698
@<TRIPOS>BOND
     1    36    37    1
     2    37    25    1
     3    25    26   ar
     4    26    27   ar
     5    27    28   ar
     6    28    29   ar
     7    29    30   ar
     8    30    31   ar
     9    31    32    2
    10    31    33   ar
    11    33    24    1
    12    24    23    1
    13    23     1    1
    14     1     2    1
    15     2     3    1
    16     3     4    1
    17     4     8    1
    18     8    10    1
    19    10    11    1
    20    11    12   ar
    21    12    13   ar
    22    13    14   ar
    23    14    15   ar
    24    15    16   ar
    25    15    17    1
    26    17    18   am
    27    18    19    2
    28    18    20    1
    29    20    21    1
    30     4     5    1
    31     5     6    1
    32     5     7    1
    33    33    34   ar
    34    34    35   ar
    35    35    25   ar
    36    34    28   ar
    37     7     1    1
    38    16    11   ar
    39    21    14    1
    40     8     9    1
    41    17    22    1
