@<TRIPOS>MOLECULE
*****
 30 34 0 0 0
SMALL
GASTEIGER

@<TRIPOS>ATOM
      1 N         142.8882  139.1222  166.8526 N.3     1  UNL1       -0.3199
      2 C         141.9203  139.5771  165.8007 C.3     1  UNL1        0.0841
      3 C         142.0735  139.1039  164.3856 C.3     1  UNL1        0.0368
      4 C         141.1056  139.5587  163.3337 C.3     1  UNL1        0.0892
      5 C         139.9846  140.4867  163.6971 C.3     1  UNL1        0.1584
      6 O         139.8314  140.9599  165.1122 O.3     1  UNL1       -0.3490
      7 C         140.7992  140.5051  166.1640 C.3     1  UNL1        0.1538
      8 H         143.5792  138.5005  166.4327 H       1  UNL1        0.1189
      9 H         142.3839  138.6242  167.5861 H       1  UNL1        0.1189
     10 N         141.2588  139.0855  161.9186 N.3     1  UNL1       -0.2627
     11 C         140.2281  139.1985  160.8347 C.3     1  UNL1        0.1022
     12 C         140.8019  138.5990  159.5851 C.ar    1  UNL1        0.0280
     13 C         140.2419  138.4310  158.2037 C.ar    1  UNL1        0.0985
     14 N         141.0672  137.7794  157.1341 N.ar    1  UNL1       -0.2295
     15 C         142.4525  137.2959  157.4457 C.ar    1  UNL1        0.1384
     16 N         143.0125  137.4639  158.8271 N.ar    1  UNL1       -0.2339
     17 C         142.1872  138.1155  159.8967 C.ar    1  UNL1        0.0753
     18 C         142.4696  138.4161  161.3389 C.3     1  UNL1        0.1187
     19 C         143.2778  136.6443  156.3759 C.3     1  UNL1        0.0586
     20 C         143.6207  135.4372  155.5542 C.3     1  UNL1        0.0080
     21 C         144.3644  136.7228  155.3448 C.3     1  UNL1        0.0080
     22 C         140.6460  140.9783  167.5792 C.ar    1  UNL1        0.0357
     23 C         141.5302  142.0701  168.1048 C.ar    1  UNL1        0.0323
     24 C         141.3770  142.5433  169.5199 C.ar    1  UNL1        0.1673
     25 F         142.2612  143.6351  170.0455 F       1  UNL1       -0.2018
     26 C         140.3397  141.9247  170.4094 C.ar    1  UNL1        0.1696
     27 F         140.1865  142.3979  171.8246 F       1  UNL1       -0.2017
     28 C         139.4555  140.8330  169.8838 C.ar    1  UNL1        0.0613
     29 C         139.6087  140.3598  168.4687 C.ar    1  UNL1        0.1408
     30 F         138.7245  139.2680  167.9431 F       1  UNL1       -0.2043
@<TRIPOS>BOND
     1     2     1    1
     2     2     3    1
     3     3     4    1
     4     4    10    1
     5    10    11    1
     6    11    12    1
     7    12    13   ar
     8    13    14   ar
     9    14    15   ar
    10    15    19    1
    11    19    20    1
    12    20    21    1
    13    15    16   ar
    14    16    17   ar
    15    17    18    1
    16     4     5    1
    17     5     6    1
    18     6     7    1
    19     7    22    1
    20    22    23   ar
    21    23    24   ar
    22    24    25    1
    23    24    26   ar
    24    26    27    1
    25    26    28   ar
    26    28    29   ar
    27    29    30    1
    28     7     2    1
    29    29    22   ar
    30    18    10    1
    31    17    12   ar
    32    21    19    1
    33     1     8    1
    34     1     9    1
@<TRIPOS>MOLECULE
*****
 30 34 0 0 0
SMALL
GASTEIGER

@<TRIPOS>ATOM
      1 N         140.1157  143.1643  166.1378 N.3     1  UNL1       -0.3199
      2 C         141.1706  142.8967  165.1054 C.3     1  UNL1        0.0841
      3 C         141.0027  143.4182  163.7090 C.3     1  UNL1        0.0368
      4 C         142.0575  143.1507  162.6767 C.3     1  UNL1        0.0892
      5 C         143.2801  142.3616  163.0407 C.3     1  UNL1        0.1584
      6 O         143.4479  141.8400  164.4370 O.3     1  UNL1       -0.3490
      7 C         142.3932  142.1076  165.4694 C.3     1  UNL1        0.1538
      8 H         139.3620  143.7101  165.7202 H       1  UNL1        0.1189
      9 H         140.5238  143.6860  166.9135 H       1  UNL1        0.1189
     10 N         141.8897  143.6722  161.2803 N.3     1  UNL1       -0.2627
     11 C         142.6963  143.2635  160.0836 C.3     1  UNL1        0.1022
     12 C         142.1909  144.0327  158.8991 C.ar    1  UNL1        0.0280
     13 C         142.6051  144.0423  157.4575 C.ar    1  UNL1        0.0985
     14 N         141.9003  144.9360  156.4806 N.ar    1  UNL1       -0.2295
     15 C         140.7812  145.8202  156.9454 C.ar    1  UNL1        0.1384
     16 N         140.3670  145.8106  158.3870 N.ar    1  UNL1       -0.2339
     17 C         141.0719  144.9169  159.3639 C.ar    1  UNL1        0.0753
     18 C         140.8857  144.6941  160.8355 C.3     1  UNL1        0.1187
     19 C         140.0763  146.7140  155.9684 C.3     1  UNL1        0.0586
     20 C         138.8913  147.5563  155.5995 C.3     1  UNL1        0.0080
     21 C         140.0405  147.4196  154.6452 C.3     1  UNL1        0.0080
     22 C         142.5610  141.5861  166.8658 C.ar    1  UNL1        0.0357
     23 C         143.2059  142.4433  167.9141 C.ar    1  UNL1        0.0323
     24 C         143.3738  141.9218  169.3105 C.ar    1  UNL1        0.1673
     25 F         144.0187  142.7792  170.3588 F       1  UNL1       -0.2018
     26 C         142.8967  140.5430  169.6585 C.ar    1  UNL1        0.1696
     27 F         143.0645  140.0214  171.0548 F       1  UNL1       -0.2017
     28 C         142.2517  139.6857  168.6101 C.ar    1  UNL1        0.0613
     29 C         142.0839  140.2072  167.2138 C.ar    1  UNL1        0.1408
     30 F         141.4389  139.3499  166.1654 F       1  UNL1       -0.2043
@<TRIPOS>BOND
     1     2     1    1
     2     2     3    1
     3     3     4    1
     4     4    10    1
     5    10    11    1
     6    11    12    1
     7    12    13   ar
     8    13    14   ar
     9    14    15   ar
    10    15    19    1
    11    19    20    1
    12    20    21    1
    13    15    16   ar
    14    16    17   ar
    15    17    18    1
    16     4     5    1
    17     5     6    1
    18     6     7    1
    19     7    22    1
    20    22    23   ar
    21    23    24   ar
    22    24    25    1
    23    24    26   ar
    24    26    27    1
    25    26    28   ar
    26    28    29   ar
    27    29    30    1
    28     7     2    1
    29    29    22   ar
    30    18    10    1
    31    17    12   ar
    32    21    19    1
    33     1     8    1
    34     1     9    1
@<TRIPOS>MOLECULE
*****
 30 34 0 0 0
SMALL
GASTEIGER

@<TRIPOS>ATOM
      1 N         143.3423  142.5211  166.1869 N.3     1  UNL1       -0.3199
      2 C         142.0866  142.7137  165.3892 C.3     1  UNL1        0.0841
      3 C         142.1647  143.2099  163.9758 C.3     1  UNL1        0.0368
      4 C         140.9092  143.4025  163.1781 C.3     1  UNL1        0.0892
      5 C         139.5755  143.0989  163.7938 C.3     1  UNL1        0.1584
      6 O         139.4974  142.6028  165.2072 O.3     1  UNL1       -0.3490
      7 C         140.7530  142.4102  166.0049 C.3     1  UNL1        0.1538
      8 H         144.1495  142.7735  165.6167 H       1  UNL1        0.1189
      9 H         143.4185  141.5443  166.4706 H       1  UNL1        0.1189
     10 N         140.9872  143.8987  161.7647 N.3     1  UNL1       -0.2627
     11 C         142.0729  143.5843  160.7786 C.3     1  UNL1        0.1022
     12 C         141.7500  144.2877  159.4937 C.ar    1  UNL1        0.0280
     13 C         142.4603  144.3428  158.1737 C.ar    1  UNL1        0.0985
     14 N         141.8853  145.1470  157.0457 N.ar    1  UNL1       -0.2295
     15 C         140.6000  145.8962  157.2376 C.ar    1  UNL1        0.1384
     16 N         139.8898  145.8411  158.5576 N.ar    1  UNL1       -0.2339
     17 C         140.4648  145.0368  159.6857 C.ar    1  UNL1        0.0753
     18 C         139.9934  144.7964  161.0892 C.3     1  UNL1        0.1187
     19 C         140.0250  146.7005  156.1095 C.3     1  UNL1        0.0586
     20 C         140.0931  147.1813  154.6903 C.3     1  UNL1        0.0080
     21 C         138.9611  147.6127  155.5748 C.3     1  UNL1        0.0080
     22 C         140.6749  141.9140  167.4183 C.ar    1  UNL1        0.0357
     23 C         140.3388  142.8641  168.5293 C.ar    1  UNL1        0.0323
     24 C         140.2607  142.3680  169.9427 C.ar    1  UNL1        0.1673
     25 F         139.9246  143.3182  171.0536 F       1  UNL1       -0.2018
     26 C         140.5187  140.9216  170.2451 C.ar    1  UNL1        0.1696
     27 F         140.4406  140.4255  171.6585 F       1  UNL1       -0.2017
     28 C         140.8548  139.9715  169.1342 C.ar    1  UNL1        0.0613
     29 C         140.9329  140.4677  167.7208 C.ar    1  UNL1        0.1408
     30 F         141.2690  139.5174  166.6099 F       1  UNL1       -0.2043
@<TRIPOS>BOND
     1     2     1    1
     2     2     3    1
     3     3     4    1
     4     4    10    1
     5    10    11    1
     6    11    12    1
     7    12    13   ar
     8    13    14   ar
     9    14    15   ar
    10    15    19    1
    11    19    20    1
    12    20    21    1
    13    15    16   ar
    14    16    17   ar
    15    17    18    1
    16     4     5    1
    17     5     6    1
    18     6     7    1
    19     7    22    1
    20    22    23   ar
    21    23    24   ar
    22    24    25    1
    23    24    26   ar
    24    26    27    1
    25    26    28   ar
    26    28    29   ar
    27    29    30    1
    28     7     2    1
    29    29    22   ar
    30    18    10    1
    31    17    12   ar
    32    21    19    1
    33     1     8    1
    34     1     9    1
@<TRIPOS>MOLECULE
*****
 30 34 0 0 0
SMALL
GASTEIGER

@<TRIPOS>ATOM
      1 N         143.7863  138.3416  166.4348 N.3     1  UNL1       -0.3199
      2 C         143.2193  139.2507  165.3849 C.3     1  UNL1        0.0841
      3 C         143.3632  138.9014  163.9333 C.3     1  UNL1        0.0368
      4 C         142.7963  139.8104  162.8834 C.3     1  UNL1        0.0892
      5 C         142.0853  141.0686  163.2852 C.3     1  UNL1        0.1584
      6 O         141.9414  141.4178  164.7368 O.3     1  UNL1       -0.3490
      7 C         142.5083  140.5089  165.7867 C.3     1  UNL1        0.1538
      8 H         144.2312  137.5406  165.9868 H       1  UNL1        0.1189
      9 H         143.0359  138.0167  167.0445 H       1  UNL1        0.1189
     10 N         142.9403  139.4612  161.4317 N.3     1  UNL1       -0.2627
     11 C         143.3690  140.3946  160.3386 C.3     1  UNL1        0.1022
     12 C         143.3745  139.6275  159.0496 C.ar    1  UNL1        0.0280
     13 C         143.7119  140.0288  157.6443 C.ar    1  UNL1        0.0985
     14 N         143.6239  139.0226  156.5353 N.ar    1  UNL1       -0.2295
     15 C         143.1985  137.6151  156.8318 C.ar    1  UNL1        0.1384
     16 N         142.8611  137.2137  158.2371 N.ar    1  UNL1       -0.2339
     17 C         142.9491  138.2199  159.3460 C.ar    1  UNL1        0.0753
     18 C         142.6807  138.1172  160.8183 C.3     1  UNL1        0.1187
     19 C         143.1105  136.6088  155.7228 C.3     1  UNL1        0.0586
     20 C         143.4682  135.2677  155.1542 C.3     1  UNL1        0.0080
     21 C         142.6004  136.2072  154.3705 C.3     1  UNL1        0.0080
     22 C         142.3643  140.8581  167.2384 C.ar    1  UNL1        0.0357
     23 C         141.5027  140.0148  168.1307 C.ar    1  UNL1        0.0323
     24 C         141.3587  140.3641  169.5824 C.ar    1  UNL1        0.1673
     25 F         140.4970  139.5207  170.4748 F       1  UNL1       -0.2018
     26 C         142.0764  141.5566  170.1417 C.ar    1  UNL1        0.1696
     27 F         141.9324  141.9058  171.5933 F       1  UNL1       -0.2017
     28 C         142.9380  142.3999  169.2493 C.ar    1  UNL1        0.0613
     29 C         143.0820  142.0506  167.7976 C.ar    1  UNL1        0.1408
     30 F         143.9437  142.8940  166.9052 F       1  UNL1       -0.2043
@<TRIPOS>BOND
     1     2     1    1
     2     2     3    1
     3     3     4    1
     4     4    10    1
     5    10    11    1
     6    11    12    1
     7    12    13   ar
     8    13    14   ar
     9    14    15   ar
    10    15    19    1
    11    19    20    1
    12    20    21    1
    13    15    16   ar
    14    16    17   ar
    15    17    18    1
    16     4     5    1
    17     5     6    1
    18     6     7    1
    19     7    22    1
    20    22    23   ar
    21    23    24   ar
    22    24    25    1
    23    24    26   ar
    24    26    27    1
    25    26    28   ar
    26    28    29   ar
    27    29    30    1
    28     7     2    1
    29    29    22   ar
    30    18    10    1
    31    17    12   ar
    32    21    19    1
    33     1     8    1
    34     1     9    1
@<TRIPOS>MOLECULE
*****
 30 34 0 0 0
SMALL
GASTEIGER

@<TRIPOS>ATOM
      1 N         141.9252  140.2419  164.6433 N.3     1  UNL1       -0.3199
      2 C         141.4263  141.6184  164.3171 C.3     1  UNL1        0.0841
      3 C         141.1773  142.0072  162.8899 C.3     1  UNL1        0.0368
      4 C         140.6785  143.3836  162.5636 C.3     1  UNL1        0.0892
      5 C         140.4287  144.3713  163.6645 C.3     1  UNL1        0.1584
      6 O         140.6778  143.9826  165.0917 O.3     1  UNL1       -0.3490
      7 C         141.1766  142.6061  165.4180 C.3     1  UNL1        0.1538
      8 H         142.0385  139.7082  163.7815 H       1  UNL1        0.1189
      9 H         141.2527  139.7712  165.2488 H       1  UNL1        0.1189
     10 N         140.4294  143.7724  161.1365 N.3     1  UNL1       -0.2627
     11 C         139.9467  142.8624  160.0461 C.3     1  UNL1        0.1022
     12 C         139.8383  143.6670  158.7848 C.ar    1  UNL1        0.0280
     13 C         139.4147  143.3000  157.3935 C.ar    1  UNL1        0.0985
     14 N         139.4069  144.3403  156.3129 N.ar    1  UNL1       -0.2295
     15 C         139.8227  145.7477  156.6237 C.ar    1  UNL1        0.1384
     16 N         140.2463  146.1146  158.0151 N.ar    1  UNL1       -0.2339
     17 C         140.2541  145.0743  159.0956 C.ar    1  UNL1        0.0753
     18 C         140.6194  145.1394  160.5490 C.3     1  UNL1        0.1187
     19 C         139.8149  146.7880  155.5431 C.3     1  UNL1        0.0586
     20 C         140.3114  147.2901  154.2197 C.3     1  UNL1        0.0080
     21 C         139.3049  148.0877  154.9948 C.3     1  UNL1        0.0080
     22 C         141.4256  142.2174  166.8452 C.ar    1  UNL1        0.0357
     23 C         140.3018  141.6867  167.6850 C.ar    1  UNL1        0.0323
     24 C         140.5508  141.2980  169.1122 C.ar    1  UNL1        0.1673
     25 F         139.4269  140.7673  169.9520 F       1  UNL1       -0.2018
     26 C         141.9237  141.4398  169.6995 C.ar    1  UNL1        0.1696
     27 F         142.1728  141.0511  171.1267 F       1  UNL1       -0.2017
     28 C         143.0476  141.9705  168.8597 C.ar    1  UNL1        0.0613
     29 C         142.7985  142.3592  167.4325 C.ar    1  UNL1        0.1408
     30 F         143.9224  142.8899  166.5927 F       1  UNL1       -0.2043
@<TRIPOS>BOND
     1     2     1    1
     2     2     3    1
     3     3     4    1
     4     4    10    1
     5    10    11    1
     6    11    12    1
     7    12    13   ar
     8    13    14   ar
     9    14    15   ar
    10    15    19    1
    11    19    20    1
    12    20    21    1
    13    15    16   ar
    14    16    17   ar
    15    17    18    1
    16     4     5    1
    17     5     6    1
    18     6     7    1
    19     7    22    1
    20    22    23   ar
    21    23    24   ar
    22    24    25    1
    23    24    26   ar
    24    26    27    1
    25    26    28   ar
    26    28    29   ar
    27    29    30    1
    28     7     2    1
    29    29    22   ar
    30    18    10    1
    31    17    12   ar
    32    21    19    1
    33     1     8    1
    34     1     9    1
@<TRIPOS>MOLECULE
*****
 30 34 0 0 0
SMALL
GASTEIGER

@<TRIPOS>ATOM
      1 N         142.1955  142.2574  165.6576 N.3     1  UNL1       -0.3199
      2 C         142.1323  140.9028  165.0164 C.3     1  UNL1        0.0841
      3 C         142.4513  140.7473  163.5590 C.3     1  UNL1        0.0368
      4 C         142.3881  139.3928  162.9178 C.3     1  UNL1        0.0892
      5 C         142.0058  138.1938  163.7339 C.3     1  UNL1        0.1584
      6 O         141.6867  138.3493  165.1913 O.3     1  UNL1       -0.3490
      7 C         141.7500  139.7038  165.8326 C.3     1  UNL1        0.1538
      8 H         142.4695  142.9507  164.9614 H       1  UNL1        0.1189
      9 H         142.8812  142.2445  166.4126 H       1  UNL1        0.1189
     10 N         142.7071  139.2373  161.4604 N.3     1  UNL1       -0.2627
     11 C         142.2641  138.1094  160.5763 C.3     1  UNL1        0.1022
     12 C         142.8084  138.3574  159.2007 C.ar    1  UNL1        0.0280
     13 C         142.6950  137.5821  157.9216 C.ar    1  UNL1        0.0985
     14 N         143.3610  138.0880  156.6764 N.ar    1  UNL1       -0.2295
     15 C         144.1403  139.3692  156.7103 C.ar    1  UNL1        0.1384
     16 N         144.2537  140.1444  157.9894 N.ar    1  UNL1       -0.2339
     17 C         143.5878  139.6385  159.2346 C.ar    1  UNL1        0.0753
     18 C         143.5252  140.1823  160.6311 C.3     1  UNL1        0.1187
     19 C         144.8063  139.8751  155.4651 C.3     1  UNL1        0.0586
     20 C         145.0625  139.7623  153.9914 C.3     1  UNL1        0.0080
     21 C         145.7037  140.8640  154.7819 C.3     1  UNL1        0.0080
     22 C         141.4309  139.8593  167.2900 C.ar    1  UNL1        0.0357
     23 C         142.5180  139.7228  168.3144 C.ar    1  UNL1        0.0323
     24 C         142.1989  139.8783  169.7718 C.ar    1  UNL1        0.1673
     25 F         143.2861  139.7417  170.7963 F       1  UNL1       -0.2018
     26 C         140.7928  140.1704  170.2048 C.ar    1  UNL1        0.1696
     27 F         140.4738  140.3259  171.6622 F       1  UNL1       -0.2017
     28 C         139.7058  140.3070  169.1803 C.ar    1  UNL1        0.0613
     29 C         140.0248  140.1514  167.7229 C.ar    1  UNL1        0.1408
     30 F         138.9376  140.2880  166.6984 F       1  UNL1       -0.2043
@<TRIPOS>BOND
     1     2     1    1
     2     2     3    1
     3     3     4    1
     4     4    10    1
     5    10    11    1
     6    11    12    1
     7    12    13   ar
     8    13    14   ar
     9    14    15   ar
    10    15    19    1
    11    19    20    1
    12    20    21    1
    13    15    16   ar
    14    16    17   ar
    15    17    18    1
    16     4     5    1
    17     5     6    1
    18     6     7    1
    19     7    22    1
    20    22    23   ar
    21    23    24   ar
    22    24    25    1
    23    24    26   ar
    24    26    27    1
    25    26    28   ar
    26    28    29   ar
    27    29    30    1
    28     7     2    1
    29    29    22   ar
    30    18    10    1
    31    17    12   ar
    32    21    19    1
    33     1     8    1
    34     1     9    1
@<TRIPOS>MOLECULE
*****
 30 34 0 0 0
SMALL
GASTEIGER

@<TRIPOS>ATOM
      1 N         139.1331  140.8621  165.6501 N.3     1  UNL1       -0.3199
      2 C         140.2024  141.7976  165.1687 C.3     1  UNL1        0.0841
      3 C         140.1780  142.3010  163.7560 C.3     1  UNL1        0.0368
      4 C         141.2472  143.2364  163.2745 C.3     1  UNL1        0.0892
      5 C         142.3408  143.6684  164.2059 C.3     1  UNL1        0.1584
      6 O         142.3652  143.1649  165.6186 O.3     1  UNL1       -0.3490
      7 C         141.2960  142.2295  166.1001 C.3     1  UNL1        0.1538
      8 H         138.4770  140.6766  164.8916 H       1  UNL1        0.1189
      9 H         138.6364  141.2875  166.4329 H       1  UNL1        0.1189
     10 N         141.2228  143.7399  161.8618 N.3     1  UNL1       -0.2627
     11 C         142.2378  143.4364  160.7999 C.3     1  UNL1        0.1022
     12 C         141.8214  144.1442  159.5447 C.ar    1  UNL1        0.0280
     13 C         142.4365  144.2097  158.1782 C.ar    1  UNL1        0.0985
     14 N         141.7792  145.0162  157.0977 N.ar    1  UNL1       -0.2295
     15 C         140.5067  145.7572  157.3838 C.ar    1  UNL1        0.1384
     16 N         139.8916  145.6916  158.7503 N.ar    1  UNL1       -0.2339
     17 C         140.5490  144.8852  159.8307 C.ar    1  UNL1        0.0753
     18 C         140.1790  144.6353  161.2627 C.3     1  UNL1        0.1187
     19 C         139.8494  146.5637  156.3032 C.3     1  UNL1        0.0586
     20 C         139.0375  147.7521  155.8809 C.3     1  UNL1        0.0080
     21 C         139.5227  146.7722  154.8542 C.3     1  UNL1        0.0080
     22 C         141.3204  141.7260  167.5128 C.ar    1  UNL1        0.0357
     23 C         141.9769  140.4153  167.8307 C.ar    1  UNL1        0.0323
     24 C         142.0013  139.9119  169.2435 C.ar    1  UNL1        0.1673
     25 F         142.6578  138.6011  169.5613 F       1  UNL1       -0.2018
     26 C         141.3692  140.7191  170.3384 C.ar    1  UNL1        0.1696
     27 F         141.3936  140.2156  171.7512 F       1  UNL1       -0.2017
     28 C         140.7128  142.0298  170.0205 C.ar    1  UNL1        0.0613
     29 C         140.6884  142.5333  168.6077 C.ar    1  UNL1        0.1408
     30 F         140.0319  143.8441  168.2899 F       1  UNL1       -0.2043
@<TRIPOS>BOND
     1     2     1    1
     2     2     3    1
     3     3     4    1
     4     4    10    1
     5    10    11    1
     6    11    12    1
     7    12    13   ar
     8    13    14   ar
     9    14    15   ar
    10    15    19    1
    11    19    20    1
    12    20    21    1
    13    15    16   ar
    14    16    17   ar
    15    17    18    1
    16     4     5    1
    17     5     6    1
    18     6     7    1
    19     7    22    1
    20    22    23   ar
    21    23    24   ar
    22    24    25    1
    23    24    26   ar
    24    26    27    1
    25    26    28   ar
    26    28    29   ar
    27    29    30    1
    28     7     2    1
    29    29    22   ar
    30    18    10    1
    31    17    12   ar
    32    21    19    1
    33     1     8    1
    34     1     9    1
@<TRIPOS>MOLECULE
*****
 30 34 0 0 0
SMALL
GASTEIGER

@<TRIPOS>ATOM
      1 N         136.9734  141.6199  163.2155 N.3     1  UNL1       -0.3199
      2 C         138.2717  142.1126  162.6481 C.3     1  UNL1        0.0841
      3 C         138.3063  142.7322  161.2825 C.3     1  UNL1        0.0368
      4 C         139.6045  143.2248  160.7151 C.3     1  UNL1        0.0892
      5 C         140.8680  143.0978  161.5133 C.3     1  UNL1        0.1584
      6 O         140.8334  142.4782  162.8789 O.3     1  UNL1       -0.3490
      7 C         139.5353  141.9856  163.4463 C.3     1  UNL1        0.1538
      8 H         136.2242  141.7846  162.5432 H       1  UNL1        0.1189
      9 H         136.7693  142.1194  164.0811 H       1  UNL1        0.1189
     10 N         139.6391  143.8444  159.3495 N.3     1  UNL1       -0.2627
     11 C         139.2928  143.1587  158.0611 C.3     1  UNL1        0.1022
     12 C         139.4658  144.1490  156.9478 C.ar    1  UNL1        0.0280
     13 C         139.2692  144.0367  155.4651 C.ar    1  UNL1        0.0985
     14 N         139.5257  145.2222  154.5826 N.ar    1  UNL1       -0.2295
     15 C         139.9788  146.5200  155.1830 C.ar    1  UNL1        0.1384
     16 N         140.1754  146.6323  156.6657 N.ar    1  UNL1       -0.2339
     17 C         139.9189  145.4468  157.5482 C.ar    1  UNL1        0.0753
     18 C         140.0260  145.2585  159.0325 C.3     1  UNL1        0.1187
     19 C         140.2353  147.7055  154.3004 C.3     1  UNL1        0.0586
     20 C         140.1897  149.1868  154.0691 C.3     1  UNL1        0.0080
     21 C         140.7253  148.2775  153.0032 C.3     1  UNL1        0.0080
     22 C         139.5006  141.3659  164.8119 C.ar    1  UNL1        0.0357
     23 C         138.8925  140.0084  165.0043 C.ar    1  UNL1        0.0323
     24 C         138.8579  139.3887  166.3699 C.ar    1  UNL1        0.1673
     25 F         138.2498  138.0311  166.5623 F       1  UNL1       -0.2018
     26 C         139.4314  140.1267  167.5431 C.ar    1  UNL1        0.1696
     27 F         139.3968  139.5071  168.9087 F       1  UNL1       -0.2017
     28 C         140.0396  141.4843  167.3507 C.ar    1  UNL1        0.0613
     29 C         140.0742  142.1039  165.9851 C.ar    1  UNL1        0.1408
     30 F         140.6823  143.4616  165.7927 F       1  UNL1       -0.2043
@<TRIPOS>BOND
     1     2     1    1
     2     2     3    1
     3     3     4    1
     4     4    10    1
     5    10    11    1
     6    11    12    1
     7    12    13   ar
     8    13    14   ar
     9    14    15   ar
    10    15    19    1
    11    19    20    1
    12    20    21    1
    13    15    16   ar
    14    16    17   ar
    15    17    18    1
    16     4     5    1
    17     5     6    1
    18     6     7    1
    19     7    22    1
    20    22    23   ar
    21    23    24   ar
    22    24    25    1
    23    24    26   ar
    24    26    27    1
    25    26    28   ar
    26    28    29   ar
    27    29    30    1
    28     7     2    1
    29    29    22   ar
    30    18    10    1
    31    17    12   ar
    32    21    19    1
    33     1     8    1
    34     1     9    1
@<TRIPOS>MOLECULE
*****
 30 34 0 0 0
SMALL
GASTEIGER

@<TRIPOS>ATOM
      1 N         144.6895  139.4695  164.3929 N.3     1  UNL1       -0.3199
      2 C         143.2959  139.5331  163.8417 C.3     1  UNL1        0.0841
      3 C         143.0352  139.1480  162.4156 C.3     1  UNL1        0.0368
      4 C         141.6417  139.2116  161.8643 C.3     1  UNL1        0.0892
      5 C         140.5088  139.6602  162.7391 C.3     1  UNL1        0.1584
      6 O         140.7695  140.0453  164.1652 O.3     1  UNL1       -0.3490
      7 C         142.1631  139.9817  164.7165 C.3     1  UNL1        0.1538
      8 H         145.3282  139.1465  163.6662 H       1  UNL1        0.1189
      9 H         144.7145  138.8214  165.1802 H       1  UNL1        0.1189
     10 N         141.3810  138.8266  160.4382 N.3     1  UNL1       -0.2627
     11 C         142.4081  138.3627  159.4483 C.3     1  UNL1        0.1022
     12 C         141.7093  138.0872  158.1499 C.ar    1  UNL1        0.0280
     13 C         142.2130  137.6069  156.8212 C.ar    1  UNL1        0.0985
     14 N         141.2578  137.4203  155.6799 N.ar    1  UNL1       -0.2295
     15 C         139.7988  137.7139  155.8673 C.ar    1  UNL1        0.1384
     16 N         139.2951  138.1942  157.1960 N.ar    1  UNL1       -0.2339
     17 C         140.2503  138.3809  158.3373 C.ar    1  UNL1        0.0753
     18 C         140.0474  138.8378  159.7515 C.3     1  UNL1        0.1187
     19 C         138.8435  137.5273  154.7259 C.3     1  UNL1        0.0586
     20 C         138.5442  136.9933  153.3565 C.3     1  UNL1        0.0080
     21 C         137.4883  137.7380  154.1184 C.3     1  UNL1        0.0080
     22 C         142.4238  140.3668  166.1426 C.ar    1  UNL1        0.0357
     23 C         142.3405  139.3326  167.2259 C.ar    1  UNL1        0.0323
     24 C         142.6012  139.7177  168.6520 C.ar    1  UNL1        0.1673
     25 F         142.5179  138.6835  169.7353 F       1  UNL1       -0.2018
     26 C         142.9451  141.1369  168.9948 C.ar    1  UNL1        0.1696
     27 F         143.2058  141.5219  170.4209 F       1  UNL1       -0.2017
     28 C         143.0284  142.1710  167.9115 C.ar    1  UNL1        0.0613
     29 C         142.7677  141.7859  166.4854 C.ar    1  UNL1        0.1408
     30 F         142.8510  142.8202  165.4021 F       1  UNL1       -0.2043
@<TRIPOS>BOND
     1     2     1    1
     2     2     3    1
     3     3     4    1
     4     4    10    1
     5    10    11    1
     6    11    12    1
     7    12    13   ar
     8    13    14   ar
     9    14    15   ar
    10    15    19    1
    11    19    20    1
    12    20    21    1
    13    15    16   ar
    14    16    17   ar
    15    17    18    1
    16     4     5    1
    17     5     6    1
    18     6     7    1
    19     7    22    1
    20    22    23   ar
    21    23    24   ar
    22    24    25    1
    23    24    26   ar
    24    26    27    1
    25    26    28   ar
    26    28    29   ar
    27    29    30    1
    28     7     2    1
    29    29    22   ar
    30    18    10    1
    31    17    12   ar
    32    21    19    1
    33     1     8    1
    34     1     9    1
