@<TRIPOS>MOLECULE
*****
 38 43 0 0 0
SMALL
GASTEIGER

@<TRIPOS>ATOM
      1 C         137.8390  142.9908  162.9861 C.3     1  UNL1        0.0932
      2 C         137.6561  141.8812  163.9787 C.3     1  UNL1        0.0286
      3 C         137.6642  140.4538  163.5178 C.3     1  UNL1        0.0193
      4 C         137.8551  140.1360  162.0643 C.3     1  UNL1        0.0700
      5 C         138.0380  141.2457  161.0717 C.3     1  UNL1        0.0193
      6 C         138.0299  142.6731  161.5327 C.3     1  UNL1        0.0286
      7 C         137.8580  140.9334  162.2693 C.3     1  UNL1        0.1562
      8 O         137.8507  142.2241  162.6861 O.3     1  UNL1       -0.3572
      9 N         137.8632  138.7086  161.6034 N.3     1  UNL1       -0.2926
     10 H         137.2756  138.6647  160.7708 H       1  UNL1        0.1236
     11 C         139.1600  138.0406  161.2539 C.3     1  UNL1        0.1152
     12 C         140.3617  138.2306  162.1312 C.ar    1  UNL1        0.0765
     13 C         140.5062  137.4271  163.3897 C.ar    1  UNL1        0.0193
     14 C         141.7080  137.6171  164.2669 C.ar    1  UNL1        0.0411
     15 C         142.7653  138.6104  163.8858 C.ar    1  UNL1        0.1710
     16 C         142.6209  139.4139  162.6274 C.ar    1  UNL1        0.1716
     17 N         141.4190  139.2240  161.7501 N.ar    1  UNL1       -0.2303
     18 N         143.6782  140.4073  162.2463 N.am    1  UNL1       -0.2366
     19 C         143.5337  141.2108  160.9878 C.3     1  UNL1        0.1217
     20 C         144.8799  140.5972  163.1236 C.2     1  UNL1        0.2750
     21 O         145.9373  141.5906  162.7424 O.2     1  UNL1       -0.2704
     22 C         145.0245  139.7938  164.3820 C.3     1  UNL1        0.2901
     23 O         143.9671  138.8004  164.7631 O.3     1  UNL1       -0.4628
     24 C         137.8309  144.4182  163.4470 C.3     1  UNL1        0.0320
     25 C         138.8963  144.9108  164.3810 C.3     1  UNL1        0.0327
     26 C         140.8634  142.0965  167.2896 C.ar    1  UNL1        0.2250
     27 C         142.2905  141.6828  167.0845 C.ar    1  UNL1        0.0593
     28 C         143.0620  142.2072  165.9098 C.ar    1  UNL1        0.0254
     29 C         142.4063  143.1452  164.9402 C.ar    1  UNL1        0.0990
     30 N         143.1778  143.6696  163.7656 N.ar    1  UNL1       -0.2400
     31 C         142.5221  144.6077  162.7960 C.ar    1  UNL1        0.1281
     32 C         141.0949  145.0215  163.0012 C.ar    1  UNL1        0.1566
     33 F         140.4392  145.9596  162.0317 F       1  UNL1       -0.2028
     34 C         140.3234  144.4971  164.1759 C.ar    1  UNL1        0.0261
     35 C         140.9792  143.5590  165.1454 C.ar    1  UNL1        0.1002
     36 N         140.2078  143.0346  166.3201 N.ar    1  UNL1       -0.2104
     37 C         139.9273  140.0933  168.6537 C.3     1  UNL1        0.2542
     38 O         140.0920  141.5721  168.4643 O.3     1  UNL1       -0.4561
@<TRIPOS>BOND
     1    37    38    1
     2    38    26    1
     3    26    27   ar
     4    27    28   ar
     5    28    29   ar
     6    29    30   ar
     7    30    31   ar
     8    31    32   ar
     9    32    33    1
    10    32    34   ar
    11    34    25    1
    12    25    24    1
    13    24     1    1
    14     1     2    1
    15     2     3    1
    16     3     4    1
    17     4     9    1
    18     9    11    1
    19    11    12    1
    20    12    13   ar
    21    13    14   ar
    22    14    15   ar
    23    15    16   ar
    24    16    17   ar
    25    16    18    1
    26    18    19    1
    27    18    20   am
    28    20    21    2
    29    20    22    1
    30    22    23    1
    31     4     5    1
    32     5     6    1
    33     4     7    1
    34     7     8    1
    35    34    35   ar
    36    35    36   ar
    37    36    26   ar
    38    35    29   ar
    39     6     1    1
    40     8     1    1
    41    17    12   ar
    42    23    15    1
    43     9    10    1
@<TRIPOS>MOLECULE
*****
 38 43 0 0 0
SMALL
GASTEIGER

@<TRIPOS>ATOM
      1 C         141.9992  138.0668  164.1196 C.3     1  UNL1        0.0932
      2 C         142.9709  138.6077  165.1262 C.3     1  UNL1        0.0286
      3 C         144.1262  139.4514  164.6751 C.3     1  UNL1        0.0193
      4 C         144.3098  139.7542  163.2175 C.3     1  UNL1        0.0700
      5 C         143.3380  139.2133  162.2109 C.3     1  UNL1        0.0193
      6 C         142.1827  138.3696  162.6620 C.3     1  UNL1        0.0286
      7 C         143.6615  139.2873  163.4168 C.3     1  UNL1        0.1562
      8 O         142.6168  138.5244  163.8246 O.3     1  UNL1       -0.3572
      9 N         145.4650  140.5979  162.7664 N.3     1  UNL1       -0.2926
     10 H         145.4325  140.6211  161.7472 H       1  UNL1        0.1236
     11 C         145.5804  142.0203  163.2284 C.3     1  UNL1        0.1152
     12 C         144.3940  142.9344  163.1455 C.ar    1  UNL1        0.0765
     13 C         143.9071  143.6446  164.3738 C.ar    1  UNL1        0.0193
     14 C         142.7207  144.5586  164.2909 C.ar    1  UNL1        0.0411
     15 C         142.0211  144.7625  162.9798 C.ar    1  UNL1        0.1710
     16 C         142.5080  144.0524  161.7516 C.ar    1  UNL1        0.1716
     17 N         143.6945  143.1383  161.8344 N.ar    1  UNL1       -0.2303
     18 N         141.8085  144.2563  160.4404 N.am    1  UNL1       -0.2366
     19 C         142.2954  143.5461  159.2121 C.3     1  UNL1        0.1217
     20 C         140.6221  145.1704  160.3575 C.2     1  UNL1        0.2750
     21 O         139.9225  145.3743  159.0464 O.2     1  UNL1       -0.2704
     22 C         140.1351  145.8806  161.5858 C.3     1  UNL1        0.2901
     23 O         140.8347  145.6766  162.8970 O.3     1  UNL1       -0.4628
     24 C         140.8439  137.2231  164.5706 C.3     1  UNL1        0.0320
     25 C         139.5518  137.8723  164.9697 C.3     1  UNL1        0.0327
     26 C         140.2874  141.9595  166.7026 C.ar    1  UNL1        0.2250
     27 C         139.8054  143.1800  165.9760 C.ar    1  UNL1        0.0593
     28 C         139.0783  143.0382  164.6717 C.ar    1  UNL1        0.0254
     29 C         138.8331  141.6758  164.0940 C.ar    1  UNL1        0.0990
     30 N         138.1060  141.5339  162.7898 N.ar    1  UNL1       -0.2400
     31 C         137.8608  140.1715  162.2121 C.ar    1  UNL1        0.1281
     32 C         138.3427  138.9509  162.9388 C.ar    1  UNL1        0.1566
     33 F         138.0975  137.5885  162.3611 F       1  UNL1       -0.2028
     34 C         139.0699  139.0928  164.2431 C.ar    1  UNL1        0.0261
     35 C         139.3150  140.4553  164.8207 C.ar    1  UNL1        0.1002
     36 N         140.0422  140.5972  166.1250 N.ar    1  UNL1       -0.2104
     37 C         140.5399  143.0945  169.0260 C.3     1  UNL1        0.2542
     38 O         141.0145  142.1014  168.0069 O.3     1  UNL1       -0.4561
@<TRIPOS>BOND
     1    37    38    1
     2    38    26    1
     3    26    27   ar
     4    27    28   ar
     5    28    29   ar
     6    29    30   ar
     7    30    31   ar
     8    31    32   ar
     9    32    33    1
    10    32    34   ar
    11    34    25    1
    12    25    24    1
    13    24     1    1
    14     1     2    1
    15     2     3    1
    16     3     4    1
    17     4     9    1
    18     9    11    1
    19    11    12    1
    20    12    13   ar
    21    13    14   ar
    22    14    15   ar
    23    15    16   ar
    24    16    17   ar
    25    16    18    1
    26    18    19    1
    27    18    20   am
    28    20    21    2
    29    20    22    1
    30    22    23    1
    31     4     5    1
    32     5     6    1
    33     4     7    1
    34     7     8    1
    35    34    35   ar
    36    35    36   ar
    37    36    26   ar
    38    35    29   ar
    39     6     1    1
    40     8     1    1
    41    17    12   ar
    42    23    15    1
    43     9    10    1
@<TRIPOS>MOLECULE
*****
 38 43 0 0 0
SMALL
GASTEIGER

@<TRIPOS>ATOM
      1 C         141.6298  138.4554  164.3916 C.3     1  UNL1        0.0932
      2 C         141.6471  138.9708  162.9830 C.3     1  UNL1        0.0286
      3 C         142.8765  139.6405  162.4445 C.3     1  UNL1        0.0193
      4 C         144.0887  139.7948  163.3145 C.3     1  UNL1        0.0700
      5 C         144.0713  139.2795  164.7231 C.3     1  UNL1        0.0193
      6 C         142.8419  138.6098  165.2617 C.3     1  UNL1        0.0286
      7 C         143.4383  139.4209  163.6538 C.3     1  UNL1        0.1562
      8 O         142.3266  138.8153  164.1408 O.3     1  UNL1       -0.3572
      9 N         145.3180  140.4645  162.7760 N.3     1  UNL1       -0.2926
     10 H         145.3037  140.3366  161.7641 H       1  UNL1        0.1236
     11 C         145.5459  141.9261  163.0245 C.3     1  UNL1        0.1152
     12 C         144.3870  142.8783  163.0133 C.ar    1  UNL1        0.0765
     13 C         143.9648  143.5609  164.2806 C.ar    1  UNL1        0.0193
     14 C         142.8059  144.5131  164.2694 C.ar    1  UNL1        0.0411
     15 C         142.0691  144.7828  162.9910 C.ar    1  UNL1        0.1710
     16 C         142.4912  144.1003  161.7238 C.ar    1  UNL1        0.1716
     17 N         143.6502  143.1480  161.7349 N.ar    1  UNL1       -0.2303
     18 N         141.7545  144.3700  160.4453 N.am    1  UNL1       -0.2366
     19 C         142.1766  143.6875  159.1780 C.3     1  UNL1        0.1217
     20 C         140.5956  145.3223  160.4341 C.2     1  UNL1        0.2750
     21 O         139.8588  145.5920  159.1557 O.2     1  UNL1       -0.2704
     22 C         140.1734  146.0049  161.7014 C.3     1  UNL1        0.2901
     23 O         140.9102  145.7351  162.9799 O.3     1  UNL1       -0.4628
     24 C         140.4004  137.7858  164.9302 C.3     1  UNL1        0.0320
     25 C         139.3775  138.5867  165.6801 C.3     1  UNL1        0.0327
     26 C         137.7571  141.3013  162.4778 C.ar    1  UNL1        0.2250
     27 C         137.9140  142.7877  162.6045 C.ar    1  UNL1        0.0593
     28 C         138.6110  143.3692  163.7986 C.ar    1  UNL1        0.0254
     29 C         139.1511  142.4644  164.8661 C.ar    1  UNL1        0.0990
     30 N         139.8482  143.0459  166.0602 N.ar    1  UNL1       -0.2400
     31 C         140.3883  142.1410  167.1277 C.ar    1  UNL1        0.1281
     32 C         140.2314  140.6546  167.0010 C.ar    1  UNL1        0.1566
     33 F         140.7715  139.7498  168.0684 F       1  UNL1       -0.2028
     34 C         139.5344  140.0731  165.8068 C.ar    1  UNL1        0.0261
     35 C         138.9943  140.9780  164.7394 C.ar    1  UNL1        0.1002
     36 N         138.2972  140.3965  163.5452 N.ar    1  UNL1       -0.2104
     37 C         137.8187  139.8578  160.3185 C.3     1  UNL1        0.2542
     38 O         137.0601  140.7198  161.2836 O.3     1  UNL1       -0.4561
@<TRIPOS>BOND
     1    37    38    1
     2    38    26    1
     3    26    27   ar
     4    27    28   ar
     5    28    29   ar
     6    29    30   ar
     7    30    31   ar
     8    31    32   ar
     9    32    33    1
    10    32    34   ar
    11    34    25    1
    12    25    24    1
    13    24     1    1
    14     1     2    1
    15     2     3    1
    16     3     4    1
    17     4     9    1
    18     9    11    1
    19    11    12    1
    20    12    13   ar
    21    13    14   ar
    22    14    15   ar
    23    15    16   ar
    24    16    17   ar
    25    16    18    1
    26    18    19    1
    27    18    20   am
    28    20    21    2
    29    20    22    1
    30    22    23    1
    31     4     5    1
    32     5     6    1
    33     4     7    1
    34     7     8    1
    35    34    35   ar
    36    35    36   ar
    37    36    26   ar
    38    35    29   ar
    39     6     1    1
    40     8     1    1
    41    17    12   ar
    42    23    15    1
    43     9    10    1
@<TRIPOS>MOLECULE
*****
 38 43 0 0 0
SMALL
GASTEIGER

@<TRIPOS>ATOM
      1 C         144.3508  139.6554  163.7668 C.3     1  UNL1        0.0932
      2 C         143.4451  139.2229  164.8814 C.3     1  UNL1        0.0286
      3 C         142.2581  138.3538  164.5890 C.3     1  UNL1        0.0193
      4 C         141.9768  137.9171  163.1817 C.3     1  UNL1        0.0700
      5 C         142.8826  138.3496  162.0670 C.3     1  UNL1        0.0193
      6 C         144.0696  139.2188  162.3596 C.3     1  UNL1        0.0286
      7 C         142.6393  138.3932  163.2930 C.3     1  UNL1        0.1562
      8 O         143.7126  139.1791  163.5575 O.3     1  UNL1       -0.3572
      9 N         140.7898  137.0480  162.8892 N.3     1  UNL1       -0.2926
     10 H         140.9564  136.1557  163.3545 H       1  UNL1        0.1236
     11 C         139.4155  137.4955  163.2904 C.3     1  UNL1        0.1152
     12 C         138.9509  138.8821  162.9565 C.ar    1  UNL1        0.0765
     13 C         138.2163  139.1385  161.6740 C.ar    1  UNL1        0.0193
     14 C         137.7518  140.5250  161.3401 C.ar    1  UNL1        0.0411
     15 C         138.0218  141.6553  162.2886 C.ar    1  UNL1        0.1710
     16 C         138.7563  141.3989  163.5710 C.ar    1  UNL1        0.1716
     17 N         139.2209  140.0123  163.9050 N.ar    1  UNL1       -0.2303
     18 N         139.0263  142.5292  164.5195 N.am    1  UNL1       -0.2366
     19 C         139.7609  142.2728  165.8020 C.3     1  UNL1        0.1217
     20 C         138.5618  143.9158  164.1856 C.2     1  UNL1        0.2750
     21 O         138.8318  145.0460  165.1341 O.2     1  UNL1       -0.2704
     22 C         137.8272  144.1721  162.9031 C.3     1  UNL1        0.2901
     23 O         137.5572  143.0419  161.9546 O.3     1  UNL1       -0.4628
     24 C         145.5378  140.5246  164.0592 C.3     1  UNL1        0.0320
     25 C         145.6481  141.8808  163.4279 C.3     1  UNL1        0.0327
     26 C         144.0094  142.5121  159.2847 C.ar    1  UNL1        0.2250
     27 C         142.7803  143.3480  159.0836 C.ar    1  UNL1        0.0593
     28 C         142.0974  143.9734  160.2636 C.ar    1  UNL1        0.0254
     29 C         142.6436  143.7630  161.6447 C.ar    1  UNL1        0.0990
     30 N         141.9607  144.3885  162.8247 N.ar    1  UNL1       -0.2400
     31 C         142.5069  144.1781  164.2057 C.ar    1  UNL1        0.1281
     32 C         143.7361  143.3422  164.4068 C.ar    1  UNL1        0.1566
     33 F         144.2823  143.1318  165.7879 F       1  UNL1       -0.2028
     34 C         144.4190  142.7167  163.2268 C.ar    1  UNL1        0.0261
     35 C         143.8727  142.9271  161.8457 C.ar    1  UNL1        0.1002
     36 N         144.5556  142.3017  160.6657 N.ar    1  UNL1       -0.2104
     37 C         145.9442  142.4997  157.5508 C.3     1  UNL1        0.2542
     38 O         144.6924  141.8866  158.1047 O.3     1  UNL1       -0.4561
@<TRIPOS>BOND
     1    37    38    1
     2    38    26    1
     3    26    27   ar
     4    27    28   ar
     5    28    29   ar
     6    29    30   ar
     7    30    31   ar
     8    31    32   ar
     9    32    33    1
    10    32    34   ar
    11    34    25    1
    12    25    24    1
    13    24     1    1
    14     1     2    1
    15     2     3    1
    16     3     4    1
    17     4     9    1
    18     9    11    1
    19    11    12    1
    20    12    13   ar
    21    13    14   ar
    22    14    15   ar
    23    15    16   ar
    24    16    17   ar
    25    16    18    1
    26    18    19    1
    27    18    20   am
    28    20    21    2
    29    20    22    1
    30    22    23    1
    31     4     5    1
    32     5     6    1
    33     4     7    1
    34     7     8    1
    35    34    35   ar
    36    35    36   ar
    37    36    26   ar
    38    35    29   ar
    39     6     1    1
    40     8     1    1
    41    17    12   ar
    42    23    15    1
    43     9    10    1
@<TRIPOS>MOLECULE
*****
 38 43 0 0 0
SMALL
GASTEIGER

@<TRIPOS>ATOM
      1 C         140.7004  137.6831  164.3216 C.3     1  UNL1        0.0932
      2 C         140.6738  137.4904  162.8343 C.3     1  UNL1        0.0286
      3 C         141.8806  137.8331  162.0119 C.3     1  UNL1        0.0193
      4 C         143.1140  138.3685  162.6769 C.3     1  UNL1        0.0700
      5 C         143.1406  138.5613  164.1642 C.3     1  UNL1        0.0193
      6 C         141.9337  138.2185  164.9866 C.3     1  UNL1        0.0286
      7 C         142.4773  138.1949  163.1692 C.3     1  UNL1        0.1562
      8 O         141.3861  137.8850  163.9129 O.3     1  UNL1       -0.3572
      9 N         144.3207  138.7112  161.8545 N.3     1  UNL1       -0.2926
     10 H         144.4125  137.9813  161.1480 H       1  UNL1        0.1236
     11 C         144.3878  140.0240  161.1320 C.3     1  UNL1        0.1152
     12 C         143.8858  141.2719  161.7958 C.ar    1  UNL1        0.0765
     13 C         144.6092  141.8321  162.9846 C.ar    1  UNL1        0.0193
     14 C         144.1072  143.0800  163.6484 C.ar    1  UNL1        0.0411
     15 C         142.8819  143.7678  163.1235 C.ar    1  UNL1        0.1710
     16 C         142.1586  143.2078  161.9348 C.ar    1  UNL1        0.1716
     17 N         142.6605  141.9598  161.2709 N.ar    1  UNL1       -0.2303
     18 N         140.9333  143.8956  161.4099 N.am    1  UNL1       -0.2366
     19 C         140.2099  143.3355  160.2212 C.3     1  UNL1        0.1217
     20 C         140.4313  145.1435  162.0738 C.2     1  UNL1        0.2750
     21 O         139.2060  145.8314  161.5489 O.2     1  UNL1       -0.2704
     22 C         141.1546  145.7036  163.2625 C.3     1  UNL1        0.2901
     23 O         142.3799  145.0158  163.7874 O.3     1  UNL1       -0.4628
     24 C         139.4937  137.3404  165.1440 C.3     1  UNL1        0.0320
     25 C         138.4232  138.3669  165.3689 C.3     1  UNL1        0.0327
     26 C         140.3720  141.2298  168.2422 C.ar    1  UNL1        0.2250
     27 C         140.6037  142.6558  167.8388 C.ar    1  UNL1        0.0593
     28 C         140.1857  143.1276  166.4776 C.ar    1  UNL1        0.0254
     29 C         139.5361  142.1733  165.5199 C.ar    1  UNL1        0.0990
     30 N         139.1181  142.6450  164.1587 N.ar    1  UNL1       -0.2400
     31 C         138.4685  141.6907  163.2010 C.ar    1  UNL1        0.1281
     32 C         138.2369  140.2646  163.6043 C.ar    1  UNL1        0.1566
     33 F         137.5873  139.3103  162.6466 F       1  UNL1       -0.2028
     34 C         138.6548  139.7929  164.9655 C.ar    1  UNL1        0.0261
     35 C         139.3045  140.7473  165.9233 C.ar    1  UNL1        0.1002
     36 N         139.7224  140.2755  167.2844 N.ar    1  UNL1       -0.2104
     37 C         140.6945  141.6835  170.7799 C.3     1  UNL1        0.2542
     38 O         140.7900  140.7581  169.6033 O.3     1  UNL1       -0.4561
@<TRIPOS>BOND
     1    37    38    1
     2    38    26    1
     3    26    27   ar
     4    27    28   ar
     5    28    29   ar
     6    29    30   ar
     7    30    31   ar
     8    31    32   ar
     9    32    33    1
    10    32    34   ar
    11    34    25    1
    12    25    24    1
    13    24     1    1
    14     1     2    1
    15     2     3    1
    16     3     4    1
    17     4     9    1
    18     9    11    1
    19    11    12    1
    20    12    13   ar
    21    13    14   ar
    22    14    15   ar
    23    15    16   ar
    24    16    17   ar
    25    16    18    1
    26    18    19    1
    27    18    20   am
    28    20    21    2
    29    20    22    1
    30    22    23    1
    31     4     5    1
    32     5     6    1
    33     4     7    1
    34     7     8    1
    35    34    35   ar
    36    35    36   ar
    37    36    26   ar
    38    35    29   ar
    39     6     1    1
    40     8     1    1
    41    17    12   ar
    42    23    15    1
    43     9    10    1
@<TRIPOS>MOLECULE
*****
 38 43 0 0 0
SMALL
GASTEIGER

@<TRIPOS>ATOM
      1 C         143.5772  142.2417  163.6299 C.3     1  UNL1        0.0932
      2 C         143.5655  142.8398  162.2544 C.3     1  UNL1        0.0286
      3 C         142.7699  144.0822  161.9835 C.3     1  UNL1        0.0193
      4 C         141.9860  144.7266  163.0883 C.3     1  UNL1        0.0700
      5 C         141.9978  144.1285  164.4638 C.3     1  UNL1        0.0193
      6 C         142.7934  142.8860  164.7346 C.3     1  UNL1        0.0286
      7 C         142.4069  144.0468  163.2848 C.3     1  UNL1        0.1562
      8 O         143.1263  142.9233  163.5297 O.3     1  UNL1       -0.3572
      9 N         141.1905  145.9690  162.8174 N.3     1  UNL1       -0.2926
     10 H         141.6713  146.4694  162.0699 H       1  UNL1        0.1236
     11 C         139.7503  145.8638  162.4115 C.3     1  UNL1        0.1152
     12 C         139.1191  144.5154  162.2290 C.ar    1  UNL1        0.0765
     13 C         138.3492  143.8892  163.3538 C.ar    1  UNL1        0.0193
     14 C         137.7180  142.5408  163.1713 C.ar    1  UNL1        0.0411
     15 C         137.8566  141.8186  161.8639 C.ar    1  UNL1        0.1710
     16 C         138.6264  142.4448  160.7391 C.ar    1  UNL1        0.1716
     17 N         139.2577  143.7932  160.9216 N.ar    1  UNL1       -0.2303
     18 N         138.7651  141.7225  159.4318 N.am    1  UNL1       -0.2366
     19 C         139.5349  142.3488  158.3069 C.3     1  UNL1        0.1217
     20 C         138.1339  140.3742  159.2492 C.2     1  UNL1        0.2750
     21 O         138.2725  139.6519  157.9418 O.2     1  UNL1       -0.2704
     22 C         137.3640  139.7479  160.3740 C.3     1  UNL1        0.2901
     23 O         137.2254  140.4701  161.6814 O.3     1  UNL1       -0.4628
     24 C         144.3728  140.9992  163.9007 C.3     1  UNL1        0.0320
     25 C         143.7050  139.7964  164.4986 C.3     1  UNL1        0.0327
     26 C         139.5718  139.4336  166.2407 C.ar    1  UNL1        0.2250
     27 C         138.4971  138.7162  165.4789 C.ar    1  UNL1        0.0593
     28 C         138.8002  138.1198  164.1363 C.ar    1  UNL1        0.0254
     29 C         140.1779  138.2408  163.5556 C.ar    1  UNL1        0.0990
     30 N         140.4809  137.6444  162.2130 N.ar    1  UNL1       -0.2400
     31 C         141.8586  137.7653  161.6323 C.ar    1  UNL1        0.1281
     32 C         142.9333  138.4827  162.3942 C.ar    1  UNL1        0.1566
     33 F         144.3110  138.6036  161.8135 F       1  UNL1       -0.2028
     34 C         142.6303  139.0791  163.7367 C.ar    1  UNL1        0.0261
     35 C         141.2525  138.9581  164.3174 C.ar    1  UNL1        0.1002
     36 N         140.9495  139.5545  165.6600 N.ar    1  UNL1       -0.2104
     37 C         140.3441  140.1170  168.6253 C.3     1  UNL1        0.2542
     38 O         139.2687  140.0300  167.5833 O.3     1  UNL1       -0.4561
@<TRIPOS>BOND
     1    37    38    1
     2    38    26    1
     3    26    27   ar
     4    27    28   ar
     5    28    29   ar
     6    29    30   ar
     7    30    31   ar
     8    31    32   ar
     9    32    33    1
    10    32    34   ar
    11    34    25    1
    12    25    24    1
    13    24     1    1
    14     1     2    1
    15     2     3    1
    16     3     4    1
    17     4     9    1
    18     9    11    1
    19    11    12    1
    20    12    13   ar
    21    13    14   ar
    22    14    15   ar
    23    15    16   ar
    24    16    17   ar
    25    16    18    1
    26    18    19    1
    27    18    20   am
    28    20    21    2
    29    20    22    1
    30    22    23    1
    31     4     5    1
    32     5     6    1
    33     4     7    1
    34     7     8    1
    35    34    35   ar
    36    35    36   ar
    37    36    26   ar
    38    35    29   ar
    39     6     1    1
    40     8     1    1
    41    17    12   ar
    42    23    15    1
    43     9    10    1
@<TRIPOS>MOLECULE
*****
 38 43 0 0 0
SMALL
GASTEIGER

@<TRIPOS>ATOM
      1 C         138.0400  139.8666  161.8475 C.3     1  UNL1        0.0932
      2 C         138.5609  140.7543  160.7563 C.3     1  UNL1        0.0286
      3 C         138.4767  142.2452  160.8979 C.3     1  UNL1        0.0193
      4 C         137.8716  142.8485  162.1308 C.3     1  UNL1        0.0700
      5 C         137.3507  141.9608  163.2220 C.3     1  UNL1        0.0193
      6 C         137.4349  140.4698  163.0803 C.3     1  UNL1        0.0286
      7 C         137.8959  142.0261  162.0983 C.3     1  UNL1        0.1562
      8 O         137.9720  140.6780  161.9703 O.3     1  UNL1       -0.3572
      9 N         137.7874  144.3393  162.2725 N.3     1  UNL1       -0.2926
     10 H         136.8761  144.5452  162.6818 H       1  UNL1        0.1236
     11 C         138.8063  145.0735  163.0927 C.3     1  UNL1        0.1152
     12 C         139.9516  144.3270  163.7098 C.ar    1  UNL1        0.0765
     13 C         139.8858  143.9086  165.1489 C.ar    1  UNL1        0.0193
     14 C         141.0311  143.1621  165.7660 C.ar    1  UNL1        0.0411
     15 C         142.2422  142.8338  164.9441 C.ar    1  UNL1        0.1710
     16 C         142.3080  143.2521  163.5052 C.ar    1  UNL1        0.1716
     17 N         141.1627  143.9987  162.8880 N.ar    1  UNL1       -0.2303
     18 N         143.5191  142.9238  162.6833 N.am    1  UNL1       -0.2366
     19 C         143.5849  143.3421  161.2443 C.3     1  UNL1        0.1217
     20 C         144.6644  142.1772  163.3004 C.2     1  UNL1        0.2750
     21 O         145.8755  141.8489  162.4786 O.2     1  UNL1       -0.2704
     22 C         144.5987  141.7589  164.7395 C.3     1  UNL1        0.2901
     23 O         143.3876  142.0872  165.5613 O.3     1  UNL1       -0.4628
     24 C         138.1242  138.3757  161.7058 C.3     1  UNL1        0.0320
     25 C         138.7387  137.5520  162.7985 C.3     1  UNL1        0.0327
     26 C         142.6977  137.7163  160.6656 C.ar    1  UNL1        0.2250
     27 C         143.9167  138.2134  161.3844 C.ar    1  UNL1        0.0593
     28 C         143.8162  138.6558  162.8141 C.ar    1  UNL1        0.0254
     29 C         142.4966  138.6010  163.5251 C.ar    1  UNL1        0.0990
     30 N         142.3960  139.0433  164.9549 N.ar    1  UNL1       -0.2400
     31 C         141.0764  138.9886  165.6659 C.ar    1  UNL1        0.1281
     32 C         139.8572  138.4914  164.9471 C.ar    1  UNL1        0.1566
     33 F         138.5376  138.4367  165.6581 F       1  UNL1       -0.2028
     34 C         139.9578  138.0491  163.5173 C.ar    1  UNL1        0.0261
     35 C         141.2775  138.1039  162.8063 C.ar    1  UNL1        0.1002
     36 N         141.3780  137.6616  161.3766 N.ar    1  UNL1       -0.2104
     37 C         142.6489  138.2750  158.1288 C.3     1  UNL1        0.2542
     38 O         142.7982  137.2740  159.2358 O.3     1  UNL1       -0.4561
@<TRIPOS>BOND
     1    37    38    1
     2    38    26    1
     3    26    27   ar
     4    27    28   ar
     5    28    29   ar
     6    29    30   ar
     7    30    31   ar
     8    31    32   ar
     9    32    33    1
    10    32    34   ar
    11    34    25    1
    12    25    24    1
    13    24     1    1
    14     1     2    1
    15     2     3    1
    16     3     4    1
    17     4     9    1
    18     9    11    1
    19    11    12    1
    20    12    13   ar
    21    13    14   ar
    22    14    15   ar
    23    15    16   ar
    24    16    17   ar
    25    16    18    1
    26    18    19    1
    27    18    20   am
    28    20    21    2
    29    20    22    1
    30    22    23    1
    31     4     5    1
    32     5     6    1
    33     4     7    1
    34     7     8    1
    35    34    35   ar
    36    35    36   ar
    37    36    26   ar
    38    35    29   ar
    39     6     1    1
    40     8     1    1
    41    17    12   ar
    42    23    15    1
    43     9    10    1
@<TRIPOS>MOLECULE
*****
 38 43 0 0 0
SMALL
GASTEIGER

@<TRIPOS>ATOM
      1 C         141.6327  137.9848  164.4633 C.3     1  UNL1        0.0932
      2 C         140.2910  138.1589  165.1112 C.3     1  UNL1        0.0286
      3 C         139.0450  138.1234  164.2769 C.3     1  UNL1        0.0193
      4 C         139.1406  137.9138  162.7946 C.3     1  UNL1        0.0700
      5 C         140.4822  137.7397  162.1467 C.3     1  UNL1        0.0193
      6 C         141.7283  137.7752  162.9812 C.3     1  UNL1        0.0286
      7 C         139.8512  137.9258  163.2104 C.3     1  UNL1        0.1562
      8 O         140.9779  137.9579  163.9648 O.3     1  UNL1       -0.3572
      9 N         137.8946  137.8783  161.9603 N.3     1  UNL1       -0.2926
     10 H         137.1089  137.8109  162.6072 H       1  UNL1        0.1236
     11 C         137.5875  139.0080  161.0225 C.3     1  UNL1        0.1152
     12 C         137.9615  140.4127  161.3924 C.ar    1  UNL1        0.0765
     13 C         137.3523  141.0572  162.6023 C.ar    1  UNL1        0.0193
     14 C         137.7263  142.4618  162.9723 C.ar    1  UNL1        0.0411
     15 C         138.7095  143.2221  162.1325 C.ar    1  UNL1        0.1710
     16 C         139.3187  142.5778  160.9227 C.ar    1  UNL1        0.1716
     17 N         138.9447  141.1730  160.5526 N.ar    1  UNL1       -0.2303
     18 N         140.3019  143.3381  160.0829 N.am    1  UNL1       -0.2366
     19 C         140.9111  142.6936  158.8730 C.3     1  UNL1        0.1217
     20 C         140.6760  144.7427  160.4529 C.2     1  UNL1        0.2750
     21 O         141.6592  145.5030  159.6131 O.2     1  UNL1       -0.2704
     22 C         140.0668  145.3872  161.6627 C.3     1  UNL1        0.2901
     23 O         139.0836  144.6269  162.5025 O.3     1  UNL1       -0.4628
     24 C         142.8787  138.0202  165.2976 C.3     1  UNL1        0.0320
     25 C         143.6709  139.2892  165.4090 C.3     1  UNL1        0.0327
     26 C         140.5657  141.9053  167.3492 C.ar    1  UNL1        0.2250
     27 C         140.0926  143.1481  166.6555 C.ar    1  UNL1        0.0593
     28 C         140.6544  143.5190  165.3151 C.ar    1  UNL1        0.0254
     29 C         141.6894  142.6470  164.6683 C.ar    1  UNL1        0.0990
     30 N         142.2513  143.0179  163.3279 N.ar    1  UNL1       -0.2400
     31 C         143.2863  142.1459  162.6812 C.ar    1  UNL1        0.1281
     32 C         143.7595  140.9030  163.3749 C.ar    1  UNL1        0.1566
     33 F         144.7946  140.0310  162.7282 F       1  UNL1       -0.2028
     34 C         143.1977  140.5321  164.7153 C.ar    1  UNL1        0.0261
     35 C         142.1626  141.4042  165.3621 C.ar    1  UNL1        0.1002
     36 N         141.6008  141.0333  166.7025 N.ar    1  UNL1       -0.2104
     37 C         140.3088  140.1919  169.2853 C.3     1  UNL1        0.2542
     38 O         140.0039  141.5344  168.6897 O.3     1  UNL1       -0.4561
@<TRIPOS>BOND
     1    37    38    1
     2    38    26    1
     3    26    27   ar
     4    27    28   ar
     5    28    29   ar
     6    29    30   ar
     7    30    31   ar
     8    31    32   ar
     9    32    33    1
    10    32    34   ar
    11    34    25    1
    12    25    24    1
    13    24     1    1
    14     1     2    1
    15     2     3    1
    16     3     4    1
    17     4     9    1
    18     9    11    1
    19    11    12    1
    20    12    13   ar
    21    13    14   ar
    22    14    15   ar
    23    15    16   ar
    24    16    17   ar
    25    16    18    1
    26    18    19    1
    27    18    20   am
    28    20    21    2
    29    20    22    1
    30    22    23    1
    31     4     5    1
    32     5     6    1
    33     4     7    1
    34     7     8    1
    35    34    35   ar
    36    35    36   ar
    37    36    26   ar
    38    35    29   ar
    39     6     1    1
    40     8     1    1
    41    17    12   ar
    42    23    15    1
    43     9    10    1
@<TRIPOS>MOLECULE
*****
 38 43 0 0 0
SMALL
GASTEIGER

@<TRIPOS>ATOM
      1 C         141.5613  145.1142  162.3692 C.3     1  UNL1        0.0932
      2 C         141.9447  144.3334  161.1472 C.3     1  UNL1        0.0286
      3 C         143.1755  143.4761  161.1605 C.3     1  UNL1        0.0193
      4 C         144.0228  143.3995  162.3960 C.3     1  UNL1        0.0700
      5 C         143.6393  144.1802  163.6180 C.3     1  UNL1        0.0193
      6 C         142.4085  145.0376  163.6046 C.3     1  UNL1        0.0286
      7 C         143.3575  143.8829  162.4364 C.3     1  UNL1        0.1562
      8 O         142.2446  144.6581  162.4243 O.3     1  UNL1       -0.3572
      9 N         145.2536  142.5422  162.4093 N.3     1  UNL1       -0.2926
     10 H         145.9865  143.0862  162.8646 H       1  UNL1        0.1236
     11 C         145.2270  141.2023  163.0832 C.3     1  UNL1        0.1152
     12 C         144.0682  140.2755  162.8641 C.ar    1  UNL1        0.0765
     13 C         144.0290  139.3981  161.6480 C.ar    1  UNL1        0.0193
     14 C         142.8702  138.4712  161.4289 C.ar    1  UNL1        0.0411
     15 C         141.7505  138.4217  162.4258 C.ar    1  UNL1        0.1710
     16 C         141.7896  139.2990  163.6418 C.ar    1  UNL1        0.1716
     17 N         142.9485  140.2259  163.8609 N.ar    1  UNL1       -0.2303
     18 N         140.6699  139.2495  164.6387 N.am    1  UNL1       -0.2366
     19 C         140.7090  140.1269  165.8547 C.3     1  UNL1        0.1217
     20 C         139.5111  138.3227  164.4196 C.2     1  UNL1        0.2750
     21 O         138.3914  138.2732  165.4165 O.2     1  UNL1       -0.2704
     22 C         139.4719  137.4453  163.2035 C.3     1  UNL1        0.2901
     23 O         140.5916  137.4948  162.2066 O.3     1  UNL1       -0.4628
     24 C         140.3305  145.9715  162.3559 C.3     1  UNL1        0.0320
     25 C         138.9945  145.3611  162.0513 C.3     1  UNL1        0.0327
     26 C         138.3618  141.7647  159.4216 C.ar    1  UNL1        0.2250
     27 C         137.9826  140.4476  160.0309 C.ar    1  UNL1        0.0593
     28 C         137.8142  140.3292  161.5167 C.ar    1  UNL1        0.0254
     29 C         138.0251  141.5280  162.3932 C.ar    1  UNL1        0.0990
     30 N         137.8567  141.4096  163.8791 N.ar    1  UNL1       -0.2400
     31 C         138.0676  142.6084  164.7556 C.ar    1  UNL1        0.1281
     32 C         138.4469  143.9256  164.1464 C.ar    1  UNL1        0.1566
     33 F         138.6578  145.1244  165.0229 F       1  UNL1       -0.2028
     34 C         138.6153  144.0440  162.6605 C.ar    1  UNL1        0.0261
     35 C         138.4044  142.8451  161.7840 C.ar    1  UNL1        0.1002
     36 N         138.5727  142.9635  160.2982 N.ar    1  UNL1       -0.2104
     37 C         137.3545  141.6721  157.0286 C.3     1  UNL1        0.2542
     38 O         138.5302  141.8831  157.9358 O.3     1  UNL1       -0.4561
@<TRIPOS>BOND
     1    37    38    1
     2    38    26    1
     3    26    27   ar
     4    27    28   ar
     5    28    29   ar
     6    29    30   ar
     7    30    31   ar
     8    31    32   ar
     9    32    33    1
    10    32    34   ar
    11    34    25    1
    12    25    24    1
    13    24     1    1
    14     1     2    1
    15     2     3    1
    16     3     4    1
    17     4     9    1
    18     9    11    1
    19    11    12    1
    20    12    13   ar
    21    13    14   ar
    22    14    15   ar
    23    15    16   ar
    24    16    17   ar
    25    16    18    1
    26    18    19    1
    27    18    20   am
    28    20    21    2
    29    20    22    1
    30    22    23    1
    31     4     5    1
    32     5     6    1
    33     4     7    1
    34     7     8    1
    35    34    35   ar
    36    35    36   ar
    37    36    26   ar
    38    35    29   ar
    39     6     1    1
    40     8     1    1
    41    17    12   ar
    42    23    15    1
    43     9    10    1
