@<TRIPOS>MOLECULE
*****
 34 38 0 0 0
SMALL
GASTEIGER

@<TRIPOS>ATOM
      1 N         142.8376  144.2842  163.1013 N.3     1  UNL1       -0.2710
      2 C         142.2815  144.2169  161.7098 C.3     1  UNL1        0.0735
      3 C         140.8261  144.4891  161.4698 C.3     1  UNL1        0.0331
      4 C         139.9268  144.8287  162.6213 C.3     1  UNL1        0.0570
      5 C         140.4829  144.8960  164.0127 C.3     1  UNL1        0.0331
      6 C         141.9383  144.6238  164.2527 C.3     1  UNL1        0.0735
      7 N         138.4713  145.1010  162.3813 N.3     1  UNL1       -0.2934
      8 H         138.3294  145.0746  161.3716 H       1  UNL1        0.1236
      9 C         137.4311  144.2068  162.9882 C.3     1  UNL1        0.1152
     10 C         137.6885  142.7345  163.1140 C.ar    1  UNL1        0.0782
     11 C         138.0136  142.1416  164.4530 C.ar    1  UNL1        0.0562
     12 C         138.2711  140.6693  164.5787 C.ar    1  UNL1        0.1752
     13 C         138.2034  139.7897  163.3655 C.ar    1  UNL1        0.1914
     14 C         137.8783  140.3826  162.0265 C.ar    1  UNL1        0.1384
     15 N         137.6209  141.8550  161.9008 N.ar    1  UNL1       -0.2434
     16 O         138.4609  138.3174  163.4913 O.3     1  UNL1       -0.4668
     17 C         138.7860  137.7245  164.8302 C.3     1  UNL1        0.2527
     18 C         138.8536  138.6040  166.0434 C.3     1  UNL1        0.2526
     19 O         138.5962  140.0764  165.9177 O.3     1  UNL1       -0.4683
     20 C         144.2931  144.0119  163.3412 C.3     1  UNL1        0.0970
     21 C         144.7183  143.1987  164.5278 C.3     1  UNL1        0.1263
     22 C         142.3323  141.7370  168.0520 C.ar    1  UNL1        0.0699
     23 C         141.9452  140.2910  168.1478 C.ar    1  UNL1        0.0104
     24 C         142.3534  139.3323  167.0689 C.ar    1  UNL1        0.0021
     25 C         143.1487  139.8195  165.8941 C.ar    1  UNL1        0.0161
     26 C         143.5569  138.8607  164.8152 C.ar    1  UNL1        0.0063
     27 C         144.3522  139.3479  163.6405 C.ar    1  UNL1        0.0608
     28 C         144.7394  140.7939  163.5446 C.ar    1  UNL1        0.2610
     29 O         145.5347  141.2812  162.3699 O.2     1  UNL1       -0.2670
     30 N         144.3312  141.7527  164.6236 N.ar    1  UNL1       -0.2941
     31 C         143.5358  141.2654  165.7984 C.ar    1  UNL1        0.0631
     32 C         143.1276  142.2242  166.8773 C.ar    1  UNL1        0.0275
     33 N         141.5159  143.6546  170.2099 N.1     1  UNL1       -0.1908
     34 C         141.9241  142.6958  169.1310 C.1     1  UNL1        0.1005
@<TRIPOS>BOND
     1    33    34    3
     2    34    22    1
     3    22    23   ar
     4    23    24   ar
     5    24    25   ar
     6    25    26   ar
     7    26    27   ar
     8    27    28   ar
     9    28    29    2
    10    28    30   ar
    11    30    21    1
    12    21    20    1
    13    20     1    1
    14     1     2    1
    15     2     3    1
    16     3     4    1
    17     4     7    1
    18     7     9    1
    19     9    10    1
    20    10    11   ar
    21    11    12   ar
    22    12    13   ar
    23    13    14   ar
    24    14    15   ar
    25    13    16    1
    26    16    17    1
    27    17    18    1
    28    18    19    1
    29     4     5    1
    30     5     6    1
    31    30    31   ar
    32    31    32   ar
    33    32    22   ar
    34    31    25   ar
    35     6     1    1
    36    15    10   ar
    37    19    12    1
    38     7     8    1
@<TRIPOS>MOLECULE
*****
 34 38 0 0 0
SMALL
GASTEIGER

@<TRIPOS>ATOM
      1 N         137.8977  142.9035  162.9160 N.3     1  UNL1       -0.2710
      2 C         138.1276  142.6642  161.4531 C.3     1  UNL1        0.0735
      3 C         138.1255  141.2650  160.9126 C.3     1  UNL1        0.0331
      4 C         137.8935  140.1051  161.8350 C.3     1  UNL1        0.0570
      5 C         137.6636  140.3444  163.2978 C.3     1  UNL1        0.0331
      6 C         137.6657  141.7436  163.8383 C.3     1  UNL1        0.0735
      7 N         137.8914  138.7058  161.2945 N.3     1  UNL1       -0.2934
      8 H         137.3562  138.7262  160.4264 H       1  UNL1        0.1236
      9 C         139.1888  138.0185  160.9872 C.3     1  UNL1        0.1152
     10 C         140.3725  138.2137  161.8875 C.ar    1  UNL1        0.0782
     11 C         141.4385  139.2034  161.5209 C.ar    1  UNL1        0.0562
     12 C         142.6222  139.3986  162.4212 C.ar    1  UNL1        0.1752
     13 C         142.7401  138.6041  163.6881 C.ar    1  UNL1        0.1914
     14 C         141.6742  137.6144  164.0547 C.ar    1  UNL1        0.1384
     15 N         140.4904  137.4193  163.1543 N.ar    1  UNL1       -0.2434
     16 O         143.9238  138.7993  164.5884 O.3     1  UNL1       -0.4668
     17 C         144.9898  139.7890  164.2219 C.3     1  UNL1        0.2527
     18 C         144.8719  140.5835  162.9551 C.3     1  UNL1        0.2526
     19 O         143.6881  140.3883  162.0547 O.3     1  UNL1       -0.4683
     20 C         137.8998  144.3028  163.4565 C.3     1  UNL1        0.0970
     21 C         138.8528  144.6826  164.5508 C.3     1  UNL1        0.1263
     22 C         140.8080  141.5835  167.1628 C.ar    1  UNL1        0.0699
     23 C         142.2726  141.2946  167.0158 C.ar    1  UNL1        0.0104
     24 C         143.0854  142.0387  165.9981 C.ar    1  UNL1        0.0021
     25 C         142.4336  143.0717  165.1274 C.ar    1  UNL1        0.0161
     26 C         143.2464  143.8158  164.1097 C.ar    1  UNL1        0.0063
     27 C         142.5947  144.8488  163.2391 C.ar    1  UNL1        0.0608
     28 C         141.1301  145.1377  163.3861 C.ar    1  UNL1        0.2610
     29 O         140.4784  146.1707  162.5154 O.2     1  UNL1       -0.2670
     30 N         140.3173  144.3937  164.4038 N.ar    1  UNL1       -0.2941
     31 C         140.9691  143.3606  165.2745 C.ar    1  UNL1        0.0631
     32 C         140.1563  142.6165  166.2922 C.ar    1  UNL1        0.0275
     33 N         139.1824  140.0954  169.1982 N.1     1  UNL1       -0.1908
     34 C         139.9952  140.8395  168.1805 C.1     1  UNL1        0.1005
@<TRIPOS>BOND
     1    33    34    3
     2    34    22    1
     3    22    23   ar
     4    23    24   ar
     5    24    25   ar
     6    25    26   ar
     7    26    27   ar
     8    27    28   ar
     9    28    29    2
    10    28    30   ar
    11    30    21    1
    12    21    20    1
    13    20     1    1
    14     1     2    1
    15     2     3    1
    16     3     4    1
    17     4     7    1
    18     7     9    1
    19     9    10    1
    20    10    11   ar
    21    11    12   ar
    22    12    13   ar
    23    13    14   ar
    24    14    15   ar
    25    13    16    1
    26    16    17    1
    27    17    18    1
    28    18    19    1
    29     4     5    1
    30     5     6    1
    31    30    31   ar
    32    31    32   ar
    33    32    22   ar
    34    31    25   ar
    35     6     1    1
    36    15    10   ar
    37    19    12    1
    38     7     8    1
@<TRIPOS>MOLECULE
*****
 34 38 0 0 0
SMALL
GASTEIGER

@<TRIPOS>ATOM
      1 N         138.0701  140.2210  162.9360 N.3     1  UNL1       -0.2710
      2 C         137.9245  141.0851  164.1534 C.3     1  UNL1        0.0735
      3 C         137.8411  142.5758  164.0094 C.3     1  UNL1        0.0331
      4 C         137.9033  143.2024  162.6480 C.3     1  UNL1        0.0570
      5 C         138.0489  142.3382  161.4306 C.3     1  UNL1        0.0331
      6 C         138.1323  140.8475  161.5746 C.3     1  UNL1        0.0735
      7 N         137.8199  144.6932  162.5040 N.3     1  UNL1       -0.2934
      8 H         137.1818  145.0237  163.2278 H       1  UNL1        0.1236
      9 C         139.0622  145.5273  162.6080 C.3     1  UNL1        0.1152
     10 C         140.4113  144.8747  162.5454 C.ar    1  UNL1        0.0782
     11 C         141.0957  144.4446  163.8090 C.ar    1  UNL1        0.0562
     12 C         142.4448  143.7919  163.7464 C.ar    1  UNL1        0.1752
     13 C         143.1095  143.5693  162.4203 C.ar    1  UNL1        0.1914
     14 C         142.4251  143.9994  161.1567 C.ar    1  UNL1        0.1384
     15 N         141.0759  144.6521  161.2193 N.ar    1  UNL1       -0.2434
     16 O         144.4586  142.9166  162.3577 O.3     1  UNL1       -0.4668
     17 C         145.1430  142.4865  163.6213 C.3     1  UNL1        0.2527
     18 C         144.4783  142.7091  164.9474 C.3     1  UNL1        0.2526
     19 O         143.1292  143.3618  165.0100 O.3     1  UNL1       -0.4683
     20 C         138.1535  138.7302  163.0800 C.3     1  UNL1        0.0970
     21 C         138.9315  138.1285  164.2126 C.3     1  UNL1        0.1263
     22 C         140.4746  140.0383  167.9837 C.ar    1  UNL1        0.0699
     23 C         141.9376  140.3351  168.1297 C.ar    1  UNL1        0.0104
     24 C         142.8863  139.9953  167.0187 C.ar    1  UNL1        0.0021
     25 C         142.3720  139.3587  165.7616 C.ar    1  UNL1        0.0161
     26 C         143.3208  139.0189  164.6506 C.ar    1  UNL1        0.0063
     27 C         142.8064  138.3823  163.3935 C.ar    1  UNL1        0.0608
     28 C         141.3433  138.0855  163.2475 C.ar    1  UNL1        0.2610
     29 O         140.8290  137.4489  161.9905 O.2     1  UNL1       -0.2670
     30 N         140.3946  138.4253  164.3586 N.ar    1  UNL1       -0.2941
     31 C         140.9090  139.0619  165.6157 C.ar    1  UNL1        0.0631
     32 C         139.9603  139.4017  166.7267 C.ar    1  UNL1        0.0275
     33 N         138.5771  140.7179  170.2059 N.1     1  UNL1       -0.1908
     34 C         139.5258  140.3781  169.0948 C.1     1  UNL1        0.1005
@<TRIPOS>BOND
     1    33    34    3
     2    34    22    1
     3    22    23   ar
     4    23    24   ar
     5    24    25   ar
     6    25    26   ar
     7    26    27   ar
     8    27    28   ar
     9    28    29    2
    10    28    30   ar
    11    30    21    1
    12    21    20    1
    13    20     1    1
    14     1     2    1
    15     2     3    1
    16     3     4    1
    17     4     7    1
    18     7     9    1
    19     9    10    1
    20    10    11   ar
    21    11    12   ar
    22    12    13   ar
    23    13    14   ar
    24    14    15   ar
    25    13    16    1
    26    16    17    1
    27    17    18    1
    28    18    19    1
    29     4     5    1
    30     5     6    1
    31    30    31   ar
    32    31    32   ar
    33    32    22   ar
    34    31    25   ar
    35     6     1    1
    36    15    10   ar
    37    19    12    1
    38     7     8    1
@<TRIPOS>MOLECULE
*****
 34 38 0 0 0
SMALL
GASTEIGER

@<TRIPOS>ATOM
      1 N         144.5261  140.2125  163.4523 N.3     1  UNL1       -0.2710
      2 C         143.8932  139.3526  164.5059 C.3     1  UNL1        0.0735
      3 C         142.8175  138.3768  164.1311 C.3     1  UNL1        0.0331
      4 C         142.3747  138.2608  162.7027 C.3     1  UNL1        0.0570
      5 C         143.0076  139.1207  161.6491 C.3     1  UNL1        0.0331
      6 C         144.0833  140.0965  162.0239 C.3     1  UNL1        0.0735
      7 N         141.2989  137.2850  162.3278 N.3     1  UNL1       -0.2934
      8 H         141.1662  136.6702  163.1308 H       1  UNL1        0.1236
      9 C         139.9396  137.7820  161.9338 C.3     1  UNL1        0.1152
     10 C         139.3502  138.9782  162.6205 C.ar    1  UNL1        0.0782
     11 C         139.2401  140.2838  161.8901 C.ar    1  UNL1        0.0562
     12 C         138.6508  141.4800  162.5769 C.ar    1  UNL1        0.1752
     13 C         138.1715  141.3707  163.9941 C.ar    1  UNL1        0.1914
     14 C         138.2816  140.0652  164.7245 C.ar    1  UNL1        0.1384
     15 N         138.8710  138.8689  164.0377 N.ar    1  UNL1       -0.2434
     16 O         137.5822  142.5669  164.6809 O.3     1  UNL1       -0.4668
     17 C         137.4721  143.8725  163.9505 C.3     1  UNL1        0.2527
     18 C         137.9513  143.9818  162.5334 C.3     1  UNL1        0.2526
     19 O         138.5407  142.7855  161.8465 O.3     1  UNL1       -0.4683
     20 C         145.6019  141.1883  163.8272 C.3     1  UNL1        0.0970
     21 C         145.2364  142.5137  164.4271 C.3     1  UNL1        0.1263
     22 C         142.3087  141.7111  167.7489 C.ar    1  UNL1        0.0699
     23 C         140.9007  142.2180  167.6464 C.ar    1  UNL1        0.0104
     24 C         140.4686  142.9924  166.4366 C.ar    1  UNL1        0.0021
     25 C         141.4445  143.2600  165.3294 C.ar    1  UNL1        0.0161
     26 C         141.0124  144.0344  164.1196 C.ar    1  UNL1        0.0063
     27 C         141.9882  144.3020  163.0124 C.ar    1  UNL1        0.0608
     28 C         143.3963  143.7950  163.1149 C.ar    1  UNL1        0.2610
     29 O         144.3722  144.0626  162.0076 O.2     1  UNL1       -0.2670
     30 N         143.8284  143.0206  164.3246 N.ar    1  UNL1       -0.2941
     31 C         142.8525  142.7531  165.4319 C.ar    1  UNL1        0.0631
     32 C         143.2846  141.9786  166.6416 C.ar    1  UNL1        0.0275
     33 N         143.1729  140.1622  170.1684 N.1     1  UNL1       -0.1908
     34 C         142.7408  140.9366  168.9587 C.1     1  UNL1        0.1005
@<TRIPOS>BOND
     1    33    34    3
     2    34    22    1
     3    22    23   ar
     4    23    24   ar
     5    24    25   ar
     6    25    26   ar
     7    26    27   ar
     8    27    28   ar
     9    28    29    2
    10    28    30   ar
    11    30    21    1
    12    21    20    1
    13    20     1    1
    14     1     2    1
    15     2     3    1
    16     3     4    1
    17     4     7    1
    18     7     9    1
    19     9    10    1
    20    10    11   ar
    21    11    12   ar
    22    12    13   ar
    23    13    14   ar
    24    14    15   ar
    25    13    16    1
    26    16    17    1
    27    17    18    1
    28    18    19    1
    29     4     5    1
    30     5     6    1
    31    30    31   ar
    32    31    32   ar
    33    32    22   ar
    34    31    25   ar
    35     6     1    1
    36    15    10   ar
    37    19    12    1
    38     7     8    1
@<TRIPOS>MOLECULE
*****
 34 38 0 0 0
SMALL
GASTEIGER

@<TRIPOS>ATOM
      1 N         140.6974  144.6823  163.1381 N.3     1  UNL1       -0.2710
      2 C         141.8679  144.8288  164.0647 C.3     1  UNL1        0.0735
      3 C         143.2404  144.4322  163.6079 C.3     1  UNL1        0.0331
      4 C         143.4425  143.8891  162.2244 C.3     1  UNL1        0.0570
      5 C         142.2721  143.7426  161.2977 C.3     1  UNL1        0.0331
      6 C         140.8996  144.1392  161.7546 C.3     1  UNL1        0.0735
      7 N         144.8151  143.4925  161.7674 N.3     1  UNL1       -0.2934
      8 H         145.4760  143.9141  162.4200 H       1  UNL1        0.1236
      9 C         145.1794  142.0414  161.6593 C.3     1  UNL1        0.1152
     10 C         144.4756  141.0260  162.5099 C.ar    1  UNL1        0.0782
     11 C         143.3822  140.1838  161.9224 C.ar    1  UNL1        0.0562
     12 C         142.6784  139.1684  162.7731 C.ar    1  UNL1        0.1752
     13 C         143.0680  138.9952  164.2112 C.ar    1  UNL1        0.1914
     14 C         144.1615  139.8374  164.7987 C.ar    1  UNL1        0.1384
     15 N         144.8653  140.8529  163.9480 N.ar    1  UNL1       -0.2434
     16 O         142.3642  137.9798  165.0619 O.3     1  UNL1       -0.4668
     17 C         141.2708  137.1376  164.4744 C.3     1  UNL1        0.2527
     18 C         140.8812  137.3108  163.0363 C.3     1  UNL1        0.2526
     19 O         141.5850  138.3262  162.1856 O.3     1  UNL1       -0.4683
     20 C         139.3248  145.0790  163.5950 C.3     1  UNL1        0.0970
     21 C         138.6525  144.3173  164.6986 C.3     1  UNL1        0.1263
     22 C         140.6437  142.0605  168.0440 C.ar    1  UNL1        0.0699
     23 C         140.6543  140.5606  168.0347 C.ar    1  UNL1        0.0104
     24 C         140.0012  139.8129  166.9102 C.ar    1  UNL1        0.0021
     25 C         139.3375  140.5652  165.7951 C.ar    1  UNL1        0.0161
     26 C         138.6843  139.8175  164.6706 C.ar    1  UNL1        0.0063
     27 C         138.0206  140.5697  163.5555 C.ar    1  UNL1        0.0608
     28 C         138.0100  142.0697  163.5648 C.ar    1  UNL1        0.2610
     29 O         137.3463  142.8220  162.4496 O.2     1  UNL1       -0.2670
     30 N         138.6631  142.8174  164.6892 N.ar    1  UNL1       -0.2941
     31 C         139.3269  142.0651  165.8044 C.ar    1  UNL1        0.0631
     32 C         139.9800  142.8127  166.9289 C.ar    1  UNL1        0.0275
     33 N         141.9499  143.5558  170.2930 N.1     1  UNL1       -0.1908
     34 C         141.2968  142.8081  169.1685 C.1     1  UNL1        0.1005
@<TRIPOS>BOND
     1    33    34    3
     2    34    22    1
     3    22    23   ar
     4    23    24   ar
     5    24    25   ar
     6    25    26   ar
     7    26    27   ar
     8    27    28   ar
     9    28    29    2
    10    28    30   ar
    11    30    21    1
    12    21    20    1
    13    20     1    1
    14     1     2    1
    15     2     3    1
    16     3     4    1
    17     4     7    1
    18     7     9    1
    19     9    10    1
    20    10    11   ar
    21    11    12   ar
    22    12    13   ar
    23    13    14   ar
    24    14    15   ar
    25    13    16    1
    26    16    17    1
    27    17    18    1
    28    18    19    1
    29     4     5    1
    30     5     6    1
    31    30    31   ar
    32    31    32   ar
    33    32    22   ar
    34    31    25   ar
    35     6     1    1
    36    15    10   ar
    37    19    12    1
    38     7     8    1
@<TRIPOS>MOLECULE
*****
 34 38 0 0 0
SMALL
GASTEIGER

@<TRIPOS>ATOM
      1 N         138.9837  139.3741  161.1392 N.3     1  UNL1       -0.2710
      2 C         139.3116  138.3649  162.1995 C.3     1  UNL1        0.0735
      3 C         140.6505  137.6887  162.2028 C.3     1  UNL1        0.0331
      4 C         141.6615  138.0217  161.1460 C.3     1  UNL1        0.0570
      5 C         141.3336  139.0309  160.0857 C.3     1  UNL1        0.0331
      6 C         139.9947  139.7070  160.0824 C.3     1  UNL1        0.0735
      7 N         143.0005  137.3455  161.1493 N.3     1  UNL1       -0.2934
      8 H         143.1068  136.8983  160.2387 H       1  UNL1        0.1236
      9 C         144.2455  138.1482  161.3854 C.3     1  UNL1        0.1152
     10 C         144.2089  139.3380  162.2981 C.ar    1  UNL1        0.0782
     11 C         144.1896  140.7236  161.7237 C.ar    1  UNL1        0.0562
     12 C         144.1530  141.9133  162.6364 C.ar    1  UNL1        0.1752
     13 C         144.1357  141.7176  164.1236 C.ar    1  UNL1        0.1914
     14 C         144.1550  140.3320  164.6979 C.ar    1  UNL1        0.1384
     15 N         144.1916  139.1422  163.7851 N.ar    1  UNL1       -0.2434
     16 O         144.0992  142.9074  165.0362 O.3     1  UNL1       -0.4668
     17 C         144.0799  144.2929  164.4619 C.3     1  UNL1        0.2527
     18 C         144.0972  144.4887  162.9749 C.3     1  UNL1        0.2526
     19 O         144.1337  143.2989  162.0621 O.3     1  UNL1       -0.4683
     20 C         137.6447  140.0503  161.1359 C.3     1  UNL1        0.0970
     21 C         137.3456  141.1267  162.1369 C.3     1  UNL1        0.1263
     22 C         138.4801  139.7624  166.2723 C.ar    1  UNL1        0.0699
     23 C         139.6014  140.4388  167.0039 C.ar    1  UNL1        0.0104
     24 C         140.3445  141.5699  166.3570 C.ar    1  UNL1        0.0021
     25 C         139.9663  142.0247  164.9786 C.ar    1  UNL1        0.0161
     26 C         140.7094  143.1558  164.3317 C.ar    1  UNL1        0.0063
     27 C         140.3312  143.6105  162.9533 C.ar    1  UNL1        0.0608
     28 C         139.2099  142.9341  162.2216 C.ar    1  UNL1        0.2610
     29 O         138.8318  143.3889  160.8432 O.2     1  UNL1       -0.2670
     30 N         138.4668  141.8030  162.8685 N.ar    1  UNL1       -0.2941
     31 C         138.8451  141.3483  164.2470 C.ar    1  UNL1        0.0631
     32 C         138.1020  140.2172  164.8938 C.ar    1  UNL1        0.0275
     33 N         136.9940  137.5002  167.5660 N.1     1  UNL1       -0.1908
     34 C         137.7371  138.6313  166.9191 C.1     1  UNL1        0.1005
@<TRIPOS>BOND
     1    33    34    3
     2    34    22    1
     3    22    23   ar
     4    23    24   ar
     5    24    25   ar
     6    25    26   ar
     7    26    27   ar
     8    27    28   ar
     9    28    29    2
    10    28    30   ar
    11    30    21    1
    12    21    20    1
    13    20     1    1
    14     1     2    1
    15     2     3    1
    16     3     4    1
    17     4     7    1
    18     7     9    1
    19     9    10    1
    20    10    11   ar
    21    11    12   ar
    22    12    13   ar
    23    13    14   ar
    24    14    15   ar
    25    13    16    1
    26    16    17    1
    27    17    18    1
    28    18    19    1
    29     4     5    1
    30     5     6    1
    31    30    31   ar
    32    31    32   ar
    33    32    22   ar
    34    31    25   ar
    35     6     1    1
    36    15    10   ar
    37    19    12    1
    38     7     8    1
@<TRIPOS>MOLECULE
*****
 34 38 0 0 0
SMALL
GASTEIGER

@<TRIPOS>ATOM
      1 N         141.3677  137.9182  164.2932 N.3     1  UNL1       -0.2710
      2 C         141.4801  137.8758  162.7981 C.3     1  UNL1        0.0735
      3 C         140.2506  138.0098  161.9494 C.3     1  UNL1        0.0331
      4 C         138.9087  138.1863  162.5959 C.3     1  UNL1        0.0570
      5 C         138.7963  138.2287  164.0911 C.3     1  UNL1        0.0331
      6 C         140.0258  138.0947  164.9398 C.3     1  UNL1        0.0735
      7 N         137.6790  138.3204  161.7473 N.3     1  UNL1       -0.2934
      8 H         136.8794  138.2811  162.3793 H       1  UNL1        0.1236
      9 C         137.4910  139.5338  160.8858 C.3     1  UNL1        0.1152
     10 C         137.8867  140.8866  161.3990 C.ar    1  UNL1        0.0782
     11 C         138.9757  141.6590  160.7153 C.ar    1  UNL1        0.0562
     12 C         139.3715  143.0118  161.2285 C.ar    1  UNL1        0.1752
     13 C         138.6782  143.5922  162.4255 C.ar    1  UNL1        0.1914
     14 C         137.5892  142.8197  163.1091 C.ar    1  UNL1        0.1384
     15 N         137.1935  141.4669  162.5959 N.ar    1  UNL1       -0.2434
     16 O         139.0739  144.9449  162.9386 O.3     1  UNL1       -0.4668
     17 C         140.1629  145.7173  162.2550 C.3     1  UNL1        0.2527
     18 C         140.8562  145.1370  161.0581 C.3     1  UNL1        0.2526
     19 O         140.4605  143.7842  160.5448 O.3     1  UNL1       -0.4683
     20 C         142.5973  137.7841  165.1419 C.3     1  UNL1        0.0970
     21 C         143.3538  139.0084  165.5648 C.3     1  UNL1        0.1263
     22 C         140.5429  141.0551  168.4213 C.ar    1  UNL1        0.0699
     23 C         140.0057  142.4177  168.0979 C.ar    1  UNL1        0.0104
     24 C         140.4054  143.0981  166.8222 C.ar    1  UNL1        0.0021
     25 C         141.3424  142.4159  165.8701 C.ar    1  UNL1        0.0161
     26 C         141.7422  143.0963  164.5945 C.ar    1  UNL1        0.0063
     27 C         142.6791  142.4141  163.6423 C.ar    1  UNL1        0.0608
     28 C         143.2164  141.0514  163.9657 C.ar    1  UNL1        0.2610
     29 O         144.1533  140.3692  163.0136 O.2     1  UNL1       -0.2670
     30 N         142.8166  140.3710  165.2414 N.ar    1  UNL1       -0.2941
     31 C         141.8796  141.0533  166.1936 C.ar    1  UNL1        0.0631
     32 C         141.4798  140.3729  167.4692 C.ar    1  UNL1        0.0275
     33 N         139.7433  139.6943  170.9726 N.1     1  UNL1       -0.1908
     34 C         140.1431  140.3747  169.6970 C.1     1  UNL1        0.1005
@<TRIPOS>BOND
     1    33    34    3
     2    34    22    1
     3    22    23   ar
     4    23    24   ar
     5    24    25   ar
     6    25    26   ar
     7    26    27   ar
     8    27    28   ar
     9    28    29    2
    10    28    30   ar
    11    30    21    1
    12    21    20    1
    13    20     1    1
    14     1     2    1
    15     2     3    1
    16     3     4    1
    17     4     7    1
    18     7     9    1
    19     9    10    1
    20    10    11   ar
    21    11    12   ar
    22    12    13   ar
    23    13    14   ar
    24    14    15   ar
    25    13    16    1
    26    16    17    1
    27    17    18    1
    28    18    19    1
    29     4     5    1
    30     5     6    1
    31    30    31   ar
    32    31    32   ar
    33    32    22   ar
    34    31    25   ar
    35     6     1    1
    36    15    10   ar
    37    19    12    1
    38     7     8    1
@<TRIPOS>MOLECULE
*****
 34 38 0 0 0
SMALL
GASTEIGER

@<TRIPOS>ATOM
      1 N         141.6570  138.1736  164.1999 N.3     1  UNL1       -0.2710
      2 C         142.7159  138.5403  165.1970 C.3     1  UNL1        0.0735
      3 C         143.9449  139.2749  164.7500 C.3     1  UNL1        0.0331
      4 C         144.1150  139.6428  163.3058 C.3     1  UNL1        0.0570
      5 C         143.0561  139.2761  162.3087 C.3     1  UNL1        0.0331
      6 C         141.8271  138.5415  162.7557 C.3     1  UNL1        0.0735
      7 N         145.3440  140.3775  162.8587 N.3     1  UNL1       -0.2934
      8 H         145.4117  140.2509  161.8488 H       1  UNL1        0.1236
      9 C         145.4751  141.8487  163.1204 C.3     1  UNL1        0.1152
     10 C         144.2732  142.7396  163.0131 C.ar    1  UNL1        0.0782
     11 C         143.7751  143.1679  161.6646 C.ar    1  UNL1        0.0562
     12 C         142.5731  144.0589  161.5574 C.ar    1  UNL1        0.1752
     13 C         141.8693  144.5216  162.7986 C.ar    1  UNL1        0.1914
     14 C         142.3675  144.0932  164.1471 C.ar    1  UNL1        0.1384
     15 N         143.5695  143.2022  164.2543 N.ar    1  UNL1       -0.2434
     16 O         140.6674  145.4125  162.6913 O.3     1  UNL1       -0.4668
     17 C         140.1692  145.8408  161.3429 C.3     1  UNL1        0.2527
     18 C         140.8730  145.3782  160.1017 C.3     1  UNL1        0.2526
     19 O         142.0750  144.4872  160.2089 O.3     1  UNL1       -0.4683
     20 C         140.4280  137.4389  164.6470 C.3     1  UNL1        0.0970
     21 C         139.2484  138.2013  165.1734 C.3     1  UNL1        0.1263
     22 C         140.7152  141.2574  168.1330 C.ar    1  UNL1        0.0699
     23 C         140.5732  142.7202  167.8332 C.ar    1  UNL1        0.0104
     24 C         139.9423  143.1644  166.5468 C.ar    1  UNL1        0.0021
     25 C         139.4534  142.1457  165.5603 C.ar    1  UNL1        0.0161
     26 C         138.8225  142.5899  164.2740 C.ar    1  UNL1        0.0063
     27 C         138.3335  141.5712  163.2874 C.ar    1  UNL1        0.0608
     28 C         138.4755  140.1083  163.5873 C.ar    1  UNL1        0.2610
     29 O         137.9866  139.0897  162.6007 O.2     1  UNL1       -0.2670
     30 N         139.1064  139.6642  164.8736 N.ar    1  UNL1       -0.2941
     31 C         139.5953  140.6829  165.8601 C.ar    1  UNL1        0.0631
     32 C         140.2262  140.2387  167.1465 C.ar    1  UNL1        0.0275
     33 N         141.9770  140.3690  170.7057 N.1     1  UNL1       -0.1908
     34 C         141.3461  140.8132  169.4193 C.1     1  UNL1        0.1005
@<TRIPOS>BOND
     1    33    34    3
     2    34    22    1
     3    22    23   ar
     4    23    24   ar
     5    24    25   ar
     6    25    26   ar
     7    26    27   ar
     8    27    28   ar
     9    28    29    2
    10    28    30   ar
    11    30    21    1
    12    21    20    1
    13    20     1    1
    14     1     2    1
    15     2     3    1
    16     3     4    1
    17     4     7    1
    18     7     9    1
    19     9    10    1
    20    10    11   ar
    21    11    12   ar
    22    12    13   ar
    23    13    14   ar
    24    14    15   ar
    25    13    16    1
    26    16    17    1
    27    17    18    1
    28    18    19    1
    29     4     5    1
    30     5     6    1
    31    30    31   ar
    32    31    32   ar
    33    32    22   ar
    34    31    25   ar
    35     6     1    1
    36    15    10   ar
    37    19    12    1
    38     7     8    1
@<TRIPOS>MOLECULE
*****
 34 38 0 0 0
SMALL
GASTEIGER

@<TRIPOS>ATOM
      1 N         139.5738  137.9821  164.5234 N.3     1  UNL1       -0.2710
      2 C         139.1958  137.9518  163.0721 C.3     1  UNL1        0.0735
      3 C         140.2592  137.8176  162.0228 C.3     1  UNL1        0.0331
      4 C         141.7006  137.7138  162.4247 C.3     1  UNL1        0.0570
      5 C         142.0786  137.7441  163.8760 C.3     1  UNL1        0.0331
      6 C         141.0152  137.8783  164.9253 C.3     1  UNL1        0.0735
      7 N         142.7640  137.5796  161.3753 N.3     1  UNL1       -0.2934
      8 H         142.3233  137.7928  160.4805 H       1  UNL1        0.1236
      9 C         144.0070  138.4154  161.4560 C.3     1  UNL1        0.1152
     10 C         143.9013  139.9065  161.5806 C.ar    1  UNL1        0.0782
     11 C         144.1634  140.5693  162.9005 C.ar    1  UNL1        0.0562
     12 C         144.0578  142.0603  163.0251 C.ar    1  UNL1        0.1752
     13 C         143.6899  142.8887  161.8298 C.ar    1  UNL1        0.1914
     14 C         143.4277  142.2259  160.5100 C.ar    1  UNL1        0.1384
     15 N         143.5334  140.7348  160.3854 N.ar    1  UNL1       -0.2434
     16 O         143.5842  144.3797  161.9545 O.3     1  UNL1       -0.4668
     17 C         143.8464  145.0425  163.2743 C.3     1  UNL1        0.2527
     18 C         144.2142  144.2142  164.4695 C.3     1  UNL1        0.2526
     19 O         144.3199  142.7231  164.3449 O.3     1  UNL1       -0.4683
     20 C         138.5103  138.1163  165.5728 C.3     1  UNL1        0.0970
     21 C         138.0287  139.4764  165.9828 C.3     1  UNL1        0.1263
     22 C         139.2818  142.6801  163.0818 C.ar    1  UNL1        0.0699
     23 C         140.2675  143.7294  163.5029 C.ar    1  UNL1        0.0104
     24 C         140.8355  143.7108  164.8911 C.ar    1  UNL1        0.0021
     25 C         140.4178  142.6429  165.8581 C.ar    1  UNL1        0.0161
     26 C         140.9859  142.6243  167.2463 C.ar    1  UNL1        0.0063
     27 C         140.5682  141.5564  168.2133 C.ar    1  UNL1        0.0608
     28 C         139.5824  140.5071  167.7921 C.ar    1  UNL1        0.2610
     29 O         139.1648  139.4392  168.7591 O.2     1  UNL1       -0.2670
     30 N         139.0144  140.5257  166.4040 N.ar    1  UNL1       -0.2941
     31 C         139.4321  141.5936  165.4369 C.ar    1  UNL1        0.0631
     32 C         138.8641  141.6123  164.0488 C.ar    1  UNL1        0.0275
     33 N         138.1457  142.7174  160.3054 N.1     1  UNL1       -0.1908
     34 C         138.7137  142.6988  161.6936 C.1     1  UNL1        0.1005
@<TRIPOS>BOND
     1    33    34    3
     2    34    22    1
     3    22    23   ar
     4    23    24   ar
     5    24    25   ar
     6    25    26   ar
     7    26    27   ar
     8    27    28   ar
     9    28    29    2
    10    28    30   ar
    11    30    21    1
    12    21    20    1
    13    20     1    1
    14     1     2    1
    15     2     3    1
    16     3     4    1
    17     4     7    1
    18     7     9    1
    19     9    10    1
    20    10    11   ar
    21    11    12   ar
    22    12    13   ar
    23    13    14   ar
    24    14    15   ar
    25    13    16    1
    26    16    17    1
    27    17    18    1
    28    18    19    1
    29     4     5    1
    30     5     6    1
    31    30    31   ar
    32    31    32   ar
    33    32    22   ar
    34    31    25   ar
    35     6     1    1
    36    15    10   ar
    37    19    12    1
    38     7     8    1
