@<TRIPOS>MOLECULE
*****
 32 35 0 0 0
SMALL
GASTEIGER

@<TRIPOS>ATOM
      1 C         140.7327  142.8828  165.7716 C.3     1  UNL1        0.0455
      2 C         141.1254  142.7557  167.2137 C.ar    1  UNL1       -0.0244
      3 C         140.3323  142.8582  168.4827 C.ar    1  UNL1       -0.0045
      4 C         141.0118  142.6813  169.8082 C.ar    1  UNL1       -0.0003
      5 C         142.4845  142.4018  169.8646 C.ar    1  UNL1       -0.0003
      6 C         143.2776  142.2992  168.5956 C.ar    1  UNL1       -0.0045
      7 C         142.5980  142.4762  167.2702 C.ar    1  UNL1       -0.0244
      8 C         143.1154  142.4307  165.8630 C.3     1  UNL1        0.0459
      9 C         141.9626  142.6820  164.9368 C.3     1  UNL1        0.0805
     10 N         142.0282  142.7249  163.4388 N.am    1  UNL1       -0.3006
     11 C         142.1827  144.0390  162.7322 C.2     1  UNL1        0.2615
     12 O         142.2717  145.3102  163.5236 O.2     1  UNL1       -0.2686
     13 H         141.9698  141.8906  162.9195 H       1  UNL1        0.1497
     14 C         142.2483  144.0819  161.2343 C.ar    1  UNL1        0.1112
     15 C         143.0164  143.1375  160.3579 C.ar    1  UNL1        0.0296
     16 C         142.8001  143.5487  158.9317 C.ar    1  UNL1        0.0483
     17 S         143.1411  143.2192  157.5087 S.2     1  UNL1       -0.0731
     18 C         142.4500  144.2141  156.6241 C.ar    1  UNL1        0.0989
     19 CL        142.5156  144.2570  155.1262 Cl      1  UNL1       -0.0742
     20 C         141.6819  145.1586  157.5005 C.ar    1  UNL1        0.0903
     21 CL        140.8445  146.3118  157.0326 Cl      1  UNL1       -0.0793
     22 C         141.8982  144.7473  158.9266 C.ar    1  UNL1        0.0748
     23 N         141.5572  145.0769  160.3497 N.ar    1  UNL1       -0.3485
     24 H         140.9809  145.8164  160.6503 H       1  UNL1        0.1661
     25 C         139.3524  143.1619  165.2551 C.3     1  UNL1        0.0447
     26 C         138.8989  144.5774  165.0534 C.2     1  UNL1        0.0504
     27 O         138.9375  145.1895  163.6845 O.co2   1  UNL1       -0.5492
     28 O         138.4068  145.3808  166.2206 O.co2   1  UNL1       -0.5492
     29 C         138.4254  142.0254  164.9401 C.3     1  UNL1        0.0380
     30 C         138.3269  141.5047  163.5368 C.3     1  UNL1        0.1427
     31 C         138.7239  142.6572  161.2426 C.3     1  UNL1        0.1741
     32 O         139.2663  142.0094  162.4820 O.3     1  UNL1       -0.3511
@<TRIPOS>UNITY_ATOM_ATTR
27 1
charge -1
@<TRIPOS>BOND
     1    31    32    1
     2    32    30    1
     3    30    29    1
     4    29    25    1
     5    25    26    1
     6    26    27   ar
     7    26    28   ar
     8     1    25    1
     9     1     2    1
    10     2     3   ar
    11     3     4   ar
    12     4     5   ar
    13     5     6   ar
    14     6     7   ar
    15     7     8    1
    16     8     9    1
    17     9    10    1
    18    10    11   am
    19    11    12    2
    20    11    14    1
    21    14    15   ar
    22    15    16   ar
    23    16    17   ar
    24    17    18   ar
    25    18    19    1
    26    18    20   ar
    27    20    21    1
    28    20    22   ar
    29    22    23   ar
    30     9     1    1
    31    23    14   ar
    32     7     2   ar
    33    22    16   ar
    34    10    13    1
    35    23    24    1
@<TRIPOS>MOLECULE
*****
 32 35 0 0 0
SMALL
GASTEIGER

@<TRIPOS>ATOM
      1 C         142.3545  142.1712  166.0462 C.3     1  UNL1        0.0455
      2 C         142.1830  142.2416  167.5347 C.ar    1  UNL1       -0.0244
      3 C         143.0929  141.8719  168.6684 C.ar    1  UNL1       -0.0045
      4 C         142.6384  142.0573  170.0858 C.ar    1  UNL1       -0.0003
      5 C         141.2741  142.6124  170.3695 C.ar    1  UNL1       -0.0003
      6 C         140.3642  142.9820  169.2357 C.ar    1  UNL1       -0.0045
      7 C         140.8186  142.7966  167.8184 C.ar    1  UNL1       -0.0244
      8 C         140.1470  143.0694  166.5051 C.3     1  UNL1        0.0459
      9 C         141.0962  142.6828  165.4099 C.3     1  UNL1        0.0805
     10 N         140.8332  142.7892  163.9369 N.am    1  UNL1       -0.3006
     11 C         141.3521  143.9664  163.1656 C.2     1  UNL1        0.2615
     12 O         142.1339  145.0372  163.8671 O.2     1  UNL1       -0.2686
     13 H         140.3201  142.0864  163.4765 H       1  UNL1        0.1497
     14 C         141.0891  144.0728  161.6926 C.ar    1  UNL1        0.1112
     15 C         140.0508  143.3095  160.9249 C.ar    1  UNL1        0.0296
     16 C         140.1383  143.7261  159.4866 C.ar    1  UNL1        0.0483
     17 S         139.5506  143.5119  158.1233 S.2     1  UNL1       -0.0731
     18 C         140.2798  144.4002  157.1594 C.ar    1  UNL1        0.0989
     19 CL        140.0169  144.5066  155.6865 Cl      1  UNL1       -0.0742
     20 C         141.3182  145.1635  157.9271 C.ar    1  UNL1        0.0903
     21 CL        142.2758  146.1672  157.3565 Cl      1  UNL1       -0.0793
     22 C         141.2306  144.7469  159.3653 C.ar    1  UNL1        0.0748
     23 N         141.8184  144.9612  160.7287 N.ar    1  UNL1       -0.3485
     24 H         142.5536  145.5768  160.9517 H       1  UNL1        0.1661
     25 C         143.5708  141.6762  165.3213 C.3     1  UNL1        0.0447
     26 C         144.6413  142.6414  164.9064 C.2     1  UNL1        0.0504
     27 O         144.7832  143.9550  165.6167 O.co2   1  UNL1       -0.5492
     28 O         145.5701  142.2932  163.7812 O.co2   1  UNL1       -0.5492
     29 C         143.7166  140.2158  165.0112 C.3     1  UNL1        0.0380
     30 C         142.9168  139.6013  163.9008 C.3     1  UNL1        0.1427
     31 C         143.0958  140.8952  161.6550 C.3     1  UNL1        0.1741
     32 O         142.2952  140.4751  162.8520 O.3     1  UNL1       -0.3511
@<TRIPOS>UNITY_ATOM_ATTR
27 1
charge -1
@<TRIPOS>BOND
     1    31    32    1
     2    32    30    1
     3    30    29    1
     4    29    25    1
     5    25    26    1
     6    26    27   ar
     7    26    28   ar
     8     1    25    1
     9     1     2    1
    10     2     3   ar
    11     3     4   ar
    12     4     5   ar
    13     5     6   ar
    14     6     7   ar
    15     7     8    1
    16     8     9    1
    17     9    10    1
    18    10    11   am
    19    11    12    2
    20    11    14    1
    21    14    15   ar
    22    15    16   ar
    23    16    17   ar
    24    17    18   ar
    25    18    19    1
    26    18    20   ar
    27    20    21    1
    28    20    22   ar
    29    22    23   ar
    30     9     1    1
    31    23    14   ar
    32     7     2   ar
    33    22    16   ar
    34    10    13    1
    35    23    24    1
@<TRIPOS>MOLECULE
*****
 32 35 0 0 0
SMALL
GASTEIGER

@<TRIPOS>ATOM
      1 C         140.1766  142.3958  164.9908 C.3     1  UNL1        0.0455
      2 C         140.0628  141.8884  166.3977 C.ar    1  UNL1       -0.0244
      3 C         140.3585  142.5274  167.7222 C.ar    1  UNL1       -0.0045
      4 C         140.1432  141.7573  168.9912 C.ar    1  UNL1       -0.0003
      5 C         139.6321  140.3482  168.9358 C.ar    1  UNL1       -0.0003
      6 C         139.3364  139.7091  167.6114 C.ar    1  UNL1       -0.0045
      7 C         139.5518  140.4792  166.3424 C.ar    1  UNL1       -0.0244
      8 C         139.3498  140.1157  164.9012 C.3     1  UNL1        0.0459
      9 C         139.7359  141.3002  164.0658 C.3     1  UNL1        0.0805
     10 N         139.6895  141.3759  162.5684 N.am    1  UNL1       -0.3006
     11 C         138.3754  141.5507  161.8667 C.2     1  UNL1        0.2615
     12 O         137.1076  141.6498  162.6623 O.2     1  UNL1       -0.2686
     13 H         140.5216  141.3108  162.0463 H       1  UNL1        0.1497
     14 C         138.3290  141.6263  160.3693 C.ar    1  UNL1        0.1112
     15 C         138.0229  140.4909  159.4381 C.ar    1  UNL1        0.0296
     16 C         138.0853  141.0135  158.0335 C.ar    1  UNL1        0.0483
     17 S         137.9346  140.6348  156.5900 S.2     1  UNL1       -0.0731
     18 C         138.1863  141.8592  155.7609 C.ar    1  UNL1        0.0989
     19 CL        138.1399  141.9348  154.2635 Cl      1  UNL1       -0.0742
     20 C         138.4925  142.9947  156.6920 C.ar    1  UNL1        0.0903
     21 CL        138.8060  144.4051  156.2891 Cl      1  UNL1       -0.0793
     22 C         138.4300  142.4720  158.0965 C.ar    1  UNL1        0.0748
     23 N         138.5807  142.8508  159.5401 N.ar    1  UNL1       -0.3485
     24 H         138.8053  143.7459  159.8831 H       1  UNL1        0.1661
     25 C         140.6483  143.7594  164.5807 C.3     1  UNL1        0.0447
     26 C         142.1071  144.0055  164.3335 C.2     1  UNL1        0.0504
     27 O         142.5540  145.2884  163.6974 O.co2   1  UNL1       -0.5492
     28 O         143.1191  142.9688  164.7222 O.co2   1  UNL1       -0.5492
     29 C         139.6610  144.8770  164.4179 C.3     1  UNL1        0.0380
     30 C         138.5791  144.7772  163.3838 C.3     1  UNL1        0.1427
     31 C         139.8245  146.1276  161.5467 C.3     1  UNL1        0.1741
     32 O         138.8999  145.0130  161.9377 O.3     1  UNL1       -0.3511
@<TRIPOS>UNITY_ATOM_ATTR
27 1
charge -1
@<TRIPOS>BOND
     1    31    32    1
     2    32    30    1
     3    30    29    1
     4    29    25    1
     5    25    26    1
     6    26    27   ar
     7    26    28   ar
     8     1    25    1
     9     1     2    1
    10     2     3   ar
    11     3     4   ar
    12     4     5   ar
    13     5     6   ar
    14     6     7   ar
    15     7     8    1
    16     8     9    1
    17     9    10    1
    18    10    11   am
    19    11    12    2
    20    11    14    1
    21    14    15   ar
    22    15    16   ar
    23    16    17   ar
    24    17    18   ar
    25    18    19    1
    26    18    20   ar
    27    20    21    1
    28    20    22   ar
    29    22    23   ar
    30     9     1    1
    31    23    14   ar
    32     7     2   ar
    33    22    16   ar
    34    10    13    1
    35    23    24    1
@<TRIPOS>MOLECULE
*****
 32 35 0 0 0
SMALL
GASTEIGER

@<TRIPOS>ATOM
      1 C         140.1707  140.7394  166.1699 C.3     1  UNL1        0.0455
      2 C         140.1901  140.9501  167.6549 C.ar    1  UNL1       -0.0244
      3 C         140.0632  139.9965  168.8057 C.ar    1  UNL1       -0.0045
      4 C         140.1213  140.5088  170.2142 C.ar    1  UNL1       -0.0003
      5 C         140.3064  141.9749  170.4720 C.ar    1  UNL1       -0.0003
      6 C         140.4333  142.9286  169.3212 C.ar    1  UNL1       -0.0045
      7 C         140.3752  142.4162  167.9127 C.ar    1  UNL1       -0.0244
      8 C         140.4702  143.1115  166.5869 C.3     1  UNL1        0.0459
      9 C         140.3438  142.0752  165.5098 C.3     1  UNL1        0.0805
     10 N         140.3835  142.3300  164.0322 N.am    1  UNL1       -0.3006
     11 C         139.1057  142.5102  163.2676 C.2     1  UNL1        0.2615
     12 O         137.7881  142.4356  163.9806 O.2     1  UNL1       -0.2686
     13 H         141.2483  142.3790  163.5642 H       1  UNL1        0.1497
     14 C         139.1454  142.7650  161.7899 C.ar    1  UNL1        0.1112
     15 C         138.3647  142.0230  160.7459 C.ar    1  UNL1        0.0296
     16 C         138.7096  142.6059  159.4076 C.ar    1  UNL1        0.0483
     17 S         138.4402  142.5076  157.9353 S.2     1  UNL1       -0.0731
     18 C         139.2677  143.5492  157.2421 C.ar    1  UNL1        0.0989
     19 CL        139.3074  143.8039  155.7644 Cl      1  UNL1       -0.0742
     20 C         140.0485  144.2912  158.2861 C.ar    1  UNL1        0.0903
     21 CL        141.0060  145.4183  158.0355 Cl      1  UNL1       -0.0793
     22 C         139.7035  143.7082  159.6243 C.ar    1  UNL1        0.0748
     23 N         139.9729  143.8066  161.0967 N.ar    1  UNL1       -0.3485
     24 H         140.5853  144.4430  161.5317 H       1  UNL1        0.1661
     25 C         140.0069  139.4238  165.4681 C.3     1  UNL1        0.0447
     26 C         138.6381  138.9402  165.0911 C.2     1  UNL1        0.0504
     27 O         137.7051  138.4300  166.1491 O.co2   1  UNL1       -0.5492
     28 O         138.2021  138.9665  163.6561 O.co2   1  UNL1       -0.5492
     29 C         141.2122  138.5919  165.1434 C.3     1  UNL1        0.0380
     30 C         141.0413  137.2025  164.6045 C.3     1  UNL1        0.1427
     31 C         141.6592  137.8471  162.1648 C.3     1  UNL1        0.1741
     32 O         140.8997  136.9831  163.1275 O.3     1  UNL1       -0.3511
@<TRIPOS>UNITY_ATOM_ATTR
27 1
charge -1
@<TRIPOS>BOND
     1    31    32    1
     2    32    30    1
     3    30    29    1
     4    29    25    1
     5    25    26    1
     6    26    27   ar
     7    26    28   ar
     8     1    25    1
     9     1     2    1
    10     2     3   ar
    11     3     4   ar
    12     4     5   ar
    13     5     6   ar
    14     6     7   ar
    15     7     8    1
    16     8     9    1
    17     9    10    1
    18    10    11   am
    19    11    12    2
    20    11    14    1
    21    14    15   ar
    22    15    16   ar
    23    16    17   ar
    24    17    18   ar
    25    18    19    1
    26    18    20   ar
    27    20    21    1
    28    20    22   ar
    29    22    23   ar
    30     9     1    1
    31    23    14   ar
    32     7     2   ar
    33    22    16   ar
    34    10    13    1
    35    23    24    1
@<TRIPOS>MOLECULE
*****
 32 35 0 0 0
SMALL
GASTEIGER

@<TRIPOS>ATOM
      1 C         140.2269  140.0813  166.2584 C.3     1  UNL1        0.0455
      2 C         140.6333  140.1982  167.6976 C.ar    1  UNL1       -0.0244
      3 C         139.8639  140.0321  168.9745 C.ar    1  UNL1       -0.0045
      4 C         140.5528  140.2149  170.2943 C.ar    1  UNL1       -0.0003
      5 C         142.0110  140.5639  170.3372 C.ar    1  UNL1       -0.0003
      6 C         142.7804  140.7301  169.0603 C.ar    1  UNL1       -0.0045
      7 C         142.0915  140.5472  167.7405 C.ar    1  UNL1       -0.0244
      8 C         142.5862  140.6459  166.3279 C.3     1  UNL1        0.0459
      9 C         141.4339  140.3579  165.4119 C.3     1  UNL1        0.0805
     10 N         141.4803  140.3483  163.9127 N.am    1  UNL1       -0.3006
     11 C         142.0640  139.1719  163.1879 C.2     1  UNL1        0.2615
     12 O         142.6012  138.0050  163.9624 O.2     1  UNL1       -0.2686
     13 H         141.1277  141.1142  163.4043 H       1  UNL1        0.1497
     14 C         142.1104  139.1623  161.6887 C.ar    1  UNL1        0.1112
     15 C         143.1798  139.7777  160.8357 C.ar    1  UNL1        0.0296
     16 C         142.8260  139.5314  159.3990 C.ar    1  UNL1        0.0483
     17 S         143.2682  139.7595  157.9840 S.2     1  UNL1       -0.0731
     18 C         142.2534  139.1327  157.0745 C.ar    1  UNL1        0.0989
     19 CL        142.2998  139.1231  155.5752 Cl      1  UNL1       -0.0742
     20 C         141.1839  138.5172  157.9274 C.ar    1  UNL1        0.0903
     21 CL        139.9732  137.7841  157.4308 Cl      1  UNL1       -0.0793
     22 C         141.5378  138.7636  159.3640 C.ar    1  UNL1        0.0748
     23 N         141.0955  138.5355  160.7791 N.ar    1  UNL1       -0.3485
     24 H         140.2820  138.0582  161.0613 H       1  UNL1        0.1661
     25 C         138.8544  139.7464  165.7543 C.3     1  UNL1        0.0447
     26 C         138.2454  138.4117  166.0670 C.2     1  UNL1        0.0504
     27 O         138.7018  137.1878  165.3296 O.co2   1  UNL1       -0.5492
     28 O         137.1801  138.3009  167.1172 O.co2   1  UNL1       -0.5492
     29 C         138.0907  140.7462  164.9374 C.3     1  UNL1        0.0380
     30 C         137.9631  140.5621  163.4542 C.3     1  UNL1        0.1427
     31 C         137.9277  138.3798  162.0451 C.3     1  UNL1        0.1741
     32 O         138.6946  139.4447  162.7715 O.3     1  UNL1       -0.3511
@<TRIPOS>UNITY_ATOM_ATTR
27 1
charge -1
@<TRIPOS>BOND
     1    31    32    1
     2    32    30    1
     3    30    29    1
     4    29    25    1
     5    25    26    1
     6    26    27   ar
     7    26    28   ar
     8     1    25    1
     9     1     2    1
    10     2     3   ar
    11     3     4   ar
    12     4     5   ar
    13     5     6   ar
    14     6     7   ar
    15     7     8    1
    16     8     9    1
    17     9    10    1
    18    10    11   am
    19    11    12    2
    20    11    14    1
    21    14    15   ar
    22    15    16   ar
    23    16    17   ar
    24    17    18   ar
    25    18    19    1
    26    18    20   ar
    27    20    21    1
    28    20    22   ar
    29    22    23   ar
    30     9     1    1
    31    23    14   ar
    32     7     2   ar
    33    22    16   ar
    34    10    13    1
    35    23    24    1
@<TRIPOS>MOLECULE
*****
 32 35 0 0 0
SMALL
GASTEIGER

@<TRIPOS>ATOM
      1 C         140.8451  142.7813  165.9454 C.3     1  UNL1        0.0455
      2 C         141.1644  142.7439  167.4105 C.ar    1  UNL1       -0.0244
      3 C         140.3165  142.9619  168.6285 C.ar    1  UNL1       -0.0045
      4 C         140.9260  142.8573  169.9950 C.ar    1  UNL1       -0.0003
      5 C         142.3833  142.5347  170.1437 C.ar    1  UNL1       -0.0003
      6 C         143.2312  142.3167  168.9257 C.ar    1  UNL1       -0.0045
      7 C         142.6218  142.4212  167.5591 C.ar    1  UNL1       -0.0244
      8 C         143.2030  142.2593  166.1859 C.3     1  UNL1        0.0459
      9 C         142.1050  142.4818  165.1885 C.3     1  UNL1        0.0805
     10 N         142.2427  142.4163  163.6962 N.am    1  UNL1       -0.3006
     11 C         142.4807  143.6708  162.9092 C.2     1  UNL1        0.2615
     12 O         142.5810  144.9909  163.6144 O.2     1  UNL1       -0.2686
     13 H         142.1769  141.5498  163.2334 H       1  UNL1        0.1497
     14 C         142.6184  143.6053  161.4170 C.ar    1  UNL1        0.1112
     15 C         141.7156  144.2669  160.4184 C.ar    1  UNL1        0.0296
     16 C         142.2223  143.9372  159.0456 C.ar    1  UNL1        0.0483
     17 S         141.9775  144.1423  157.5800 S.2     1  UNL1       -0.0731
     18 C         143.0421  143.4037  156.8244 C.ar    1  UNL1        0.0989
     19 CL        143.1798  143.3382  155.3322 Cl      1  UNL1       -0.0742
     20 C         143.9450  142.7421  157.8231 C.ar    1  UNL1        0.0903
     21 CL        145.1439  141.8988  157.5047 Cl      1  UNL1       -0.0793
     22 C         143.4382  143.0718  159.1958 C.ar    1  UNL1        0.0748
     23 N         143.6831  142.8667  160.6614 N.ar    1  UNL1       -0.3485
     24 H         144.4142  142.3398  161.0578 H       1  UNL1        0.1661
     25 C         139.5016  143.0679  165.3429 C.3     1  UNL1        0.0447
     26 C         139.0622  144.4861  165.1300 C.2     1  UNL1        0.0504
     27 O         139.2526  145.1375  163.7922 O.co2   1  UNL1       -0.5492
     28 O         138.4324  145.2531  166.2547 O.co2   1  UNL1       -0.5492
     29 C         138.5974  141.9361  164.9533 C.3     1  UNL1        0.0380
     30 C         138.8135  140.5698  165.5334 C.3     1  UNL1        0.1427
     31 C         138.8348  138.0036  165.1283 C.3     1  UNL1        0.1741
     32 O         138.2726  139.3615  164.8281 O.3     1  UNL1       -0.3511
@<TRIPOS>UNITY_ATOM_ATTR
27 1
charge -1
@<TRIPOS>BOND
     1    31    32    1
     2    32    30    1
     3    30    29    1
     4    29    25    1
     5    25    26    1
     6    26    27   ar
     7    26    28   ar
     8     1    25    1
     9     1     2    1
    10     2     3   ar
    11     3     4   ar
    12     4     5   ar
    13     5     6   ar
    14     6     7   ar
    15     7     8    1
    16     8     9    1
    17     9    10    1
    18    10    11   am
    19    11    12    2
    20    11    14    1
    21    14    15   ar
    22    15    16   ar
    23    16    17   ar
    24    17    18   ar
    25    18    19    1
    26    18    20   ar
    27    20    21    1
    28    20    22   ar
    29    22    23   ar
    30     9     1    1
    31    23    14   ar
    32     7     2   ar
    33    22    16   ar
    34    10    13    1
    35    23    24    1
@<TRIPOS>MOLECULE
*****
 32 35 0 0 0
SMALL
GASTEIGER

@<TRIPOS>ATOM
      1 C         140.1738  140.7488  166.0237 C.3     1  UNL1        0.0455
      2 C         140.6683  140.5663  167.4280 C.ar    1  UNL1       -0.0244
      3 C         140.0559  139.9118  168.6307 C.ar    1  UNL1       -0.0045
      4 C         140.8035  139.8823  169.9307 C.ar    1  UNL1       -0.0003
      5 C         142.1636  140.5073  170.0281 C.ar    1  UNL1       -0.0003
      6 C         142.7760  141.1619  168.8255 C.ar    1  UNL1       -0.0045
      7 C         142.0284  141.1914  167.5254 C.ar    1  UNL1       -0.0244
      8 C         142.3744  141.7602  166.1813 C.3     1  UNL1        0.0459
      9 C         141.2282  141.4866  165.2531 C.3     1  UNL1        0.0805
     10 N         141.1502  141.8816  163.8082 N.am    1  UNL1       -0.3006
     11 C         140.6998  143.2618  163.4312 C.2     1  UNL1        0.2615
     12 O         140.3275  144.2471  164.4992 O.2     1  UNL1       -0.2686
     13 H         141.3945  141.2349  163.1072 H       1  UNL1        0.1497
     14 C         140.6218  143.6568  161.9862 C.ar    1  UNL1        0.1112
     15 C         141.4033  144.7556  161.3291 C.ar    1  UNL1        0.0296
     16 C         141.0130  144.8002  159.8814 C.ar    1  UNL1        0.0483
     17 S         141.2548  145.5068  158.5806 S.2     1  UNL1       -0.0731
     18 C         140.3816  144.8723  157.5391 C.ar    1  UNL1        0.0989
     19 CL        140.3035  145.2672  156.0941 Cl      1  UNL1       -0.0742
     20 C         139.6000  143.7734  158.1962 C.ar    1  UNL1        0.0903
     21 CL        138.6033  142.8767  157.5237 Cl      1  UNL1       -0.0793
     22 C         139.9903  143.7289  159.6438 C.ar    1  UNL1        0.0748
     23 N         139.7485  143.0222  160.9447 N.ar    1  UNL1       -0.3485
     24 H         139.1259  142.2734  161.0894 H       1  UNL1        0.1661
     25 C         138.8562  140.2764  165.4846 C.3     1  UNL1        0.0447
     26 C         138.4208  138.8580  165.7048 C.2     1  UNL1        0.0504
     27 O         139.0548  137.7483  164.9195 O.co2   1  UNL1       -0.5492
     28 O         137.3513  138.5492  166.7103 O.co2   1  UNL1       -0.5492
     29 C         137.9738  141.2224  164.7252 C.3     1  UNL1        0.0380
     30 C         137.7230  141.0036  163.2625 C.3     1  UNL1        0.1427
     31 C         138.5554  139.1110  161.6893 C.3     1  UNL1        0.1741
     32 O         138.7960  140.4109  162.3981 O.3     1  UNL1       -0.3511
@<TRIPOS>UNITY_ATOM_ATTR
27 1
charge -1
@<TRIPOS>BOND
     1    31    32    1
     2    32    30    1
     3    30    29    1
     4    29    25    1
     5    25    26    1
     6    26    27   ar
     7    26    28   ar
     8     1    25    1
     9     1     2    1
    10     2     3   ar
    11     3     4   ar
    12     4     5   ar
    13     5     6   ar
    14     6     7   ar
    15     7     8    1
    16     8     9    1
    17     9    10    1
    18    10    11   am
    19    11    12    2
    20    11    14    1
    21    14    15   ar
    22    15    16   ar
    23    16    17   ar
    24    17    18   ar
    25    18    19    1
    26    18    20   ar
    27    20    21    1
    28    20    22   ar
    29    22    23   ar
    30     9     1    1
    31    23    14   ar
    32     7     2   ar
    33    22    16   ar
    34    10    13    1
    35    23    24    1
@<TRIPOS>MOLECULE
*****
 32 35 0 0 0
SMALL
GASTEIGER

@<TRIPOS>ATOM
      1 C         139.7486  140.8373  165.1475 C.3     1  UNL1        0.0455
      2 C         139.7411  140.8821  166.6468 C.ar    1  UNL1       -0.0244
      3 C         139.2279  139.9204  167.6772 C.ar    1  UNL1       -0.0045
      4 C         139.3628  140.2417  169.1361 C.ar    1  UNL1       -0.0003
      5 C         140.0110  141.5248  169.5647 C.ar    1  UNL1       -0.0003
      6 C         140.5242  142.4865  168.5343 C.ar    1  UNL1       -0.0045
      7 C         140.3893  142.1652  167.0754 C.ar    1  UNL1       -0.0244
      8 C         140.7973  142.9133  165.8410 C.3     1  UNL1        0.0459
      9 C         140.4013  142.0926  164.6495 C.3     1  UNL1        0.0805
     10 N         140.6197  142.4624  163.2122 N.am    1  UNL1       -0.3006
     11 C         139.9371  143.6672  162.6357 C.2     1  UNL1        0.2615
     12 O         139.0360  144.5023  163.4964 O.2     1  UNL1       -0.2686
     13 H         141.2111  141.9143  162.6474 H       1  UNL1        0.1497
     14 C         140.1555  144.0369  161.1985 C.ar    1  UNL1        0.1112
     15 C         141.2484  144.9187  160.6712 C.ar    1  UNL1        0.0296
     16 C         141.0877  145.0166  159.1830 C.ar    1  UNL1        0.0483
     17 S         141.6638  145.6220  157.9375 S.2     1  UNL1       -0.0731
     18 C         140.8277  145.1749  156.7752 C.ar    1  UNL1        0.0989
     19 CL        141.0461  145.5446  155.3380 Cl      1  UNL1       -0.0742
     20 C         139.7347  144.2930  157.3025 C.ar    1  UNL1        0.0903
     21 CL        138.6684  143.6262  156.4850 Cl      1  UNL1       -0.0793
     22 C         139.8955  144.1952  158.7905 C.ar    1  UNL1        0.0748
     23 N         139.3193  143.5897  160.0361 N.ar    1  UNL1       -0.3485
     24 H         138.5308  143.0020  160.0826 H       1  UNL1        0.1661
     25 C         139.1996  139.7313  164.2958 C.3     1  UNL1        0.0447
     26 C         138.1380  140.0250  163.2777 C.2     1  UNL1        0.0504
     27 O         137.4138  141.3383  163.3067 O.co2   1  UNL1       -0.5492
     28 O         137.8004  139.0054  162.2305 O.co2   1  UNL1       -0.5492
     29 C         139.7124  138.3314  164.4622 C.3     1  UNL1        0.0380
     30 C         141.1809  138.0876  164.6469 C.3     1  UNL1        0.1427
     31 C         141.5908  137.7632  162.1021 C.3     1  UNL1        0.1741
     32 O         142.1024  138.1282  163.4641 O.3     1  UNL1       -0.3511
@<TRIPOS>UNITY_ATOM_ATTR
27 1
charge -1
@<TRIPOS>BOND
     1    31    32    1
     2    32    30    1
     3    30    29    1
     4    29    25    1
     5    25    26    1
     6    26    27   ar
     7    26    28   ar
     8     1    25    1
     9     1     2    1
    10     2     3   ar
    11     3     4   ar
    12     4     5   ar
    13     5     6   ar
    14     6     7   ar
    15     7     8    1
    16     8     9    1
    17     9    10    1
    18    10    11   am
    19    11    12    2
    20    11    14    1
    21    14    15   ar
    22    15    16   ar
    23    16    17   ar
    24    17    18   ar
    25    18    19    1
    26    18    20   ar
    27    20    21    1
    28    20    22   ar
    29    22    23   ar
    30     9     1    1
    31    23    14   ar
    32     7     2   ar
    33    22    16   ar
    34    10    13    1
    35    23    24    1
@<TRIPOS>MOLECULE
*****
 32 35 0 0 0
SMALL
GASTEIGER

@<TRIPOS>ATOM
      1 C         141.0686  142.6886  166.2226 C.3     1  UNL1        0.0455
      2 C         141.2822  142.4454  167.6873 C.ar    1  UNL1       -0.0244
      3 C         140.3235  142.3183  168.8339 C.ar    1  UNL1       -0.0045
      4 C         140.8406  142.0704  170.2199 C.ar    1  UNL1       -0.0003
      5 C         142.3164  141.9496  170.4594 C.ar    1  UNL1       -0.0003
      6 C         143.2751  142.0767  169.3128 C.ar    1  UNL1       -0.0045
      7 C         142.7580  142.3246  167.9268 C.ar    1  UNL1       -0.0244
      8 C         143.4565  142.4931  166.6101 C.3     1  UNL1        0.0459
      9 C         142.4124  142.7181  165.5569 C.3     1  UNL1        0.0805
     10 N         142.6674  142.9346  164.0946 N.am    1  UNL1       -0.3006
     11 C         142.7091  141.7629  163.1591 C.2     1  UNL1        0.2615
     12 O         142.4958  140.3746  163.6857 O.2     1  UNL1       -0.2686
     13 H         142.8074  143.8457  163.7490 H       1  UNL1        0.1497
     14 C         142.9640  141.9794  161.6968 C.ar    1  UNL1        0.1112
     15 C         143.6913  141.0408  160.7802 C.ar    1  UNL1        0.0296
     16 C         143.7132  141.6538  159.4113 C.ar    1  UNL1        0.0483
     17 S         144.1762  141.4526  157.9989 S.2     1  UNL1       -0.0731
     18 C         143.7487  142.6456  157.1966 C.ar    1  UNL1        0.0989
     19 CL        144.0037  142.8621  155.7343 Cl      1  UNL1       -0.0742
     20 C         143.0215  143.5843  158.1132 C.ar    1  UNL1        0.0903
     21 CL        142.4216  144.9041  157.7284 Cl      1  UNL1       -0.0793
     22 C         142.9996  142.9712  159.4819 C.ar    1  UNL1        0.0748
     23 N         142.5365  143.1725  160.8944 N.ar    1  UNL1       -0.3485
     24 H         142.0393  143.9510  161.2351 H       1  UNL1        0.1661
     25 C         139.7438  142.8704  165.5431 C.3     1  UNL1        0.0447
     26 C         138.9282  141.6722  165.1570 C.2     1  UNL1        0.0504
     27 O         137.6469  141.8502  164.3976 O.co2   1  UNL1       -0.5492
     28 O         139.3938  140.2960  165.5302 O.co2   1  UNL1       -0.5492
     29 C         139.2345  144.2505  165.2496 C.3     1  UNL1        0.0380
     30 C         139.4943  144.8771  163.9117 C.3     1  UNL1        0.1427
     31 C         139.1603  143.5359  161.7118 C.3     1  UNL1        0.1741
     32 O         140.0611  144.0520  162.7946 O.3     1  UNL1       -0.3511
@<TRIPOS>UNITY_ATOM_ATTR
27 1
charge -1
@<TRIPOS>BOND
     1    31    32    1
     2    32    30    1
     3    30    29    1
     4    29    25    1
     5    25    26    1
     6    26    27   ar
     7    26    28   ar
     8     1    25    1
     9     1     2    1
    10     2     3   ar
    11     3     4   ar
    12     4     5   ar
    13     5     6   ar
    14     6     7   ar
    15     7     8    1
    16     8     9    1
    17     9    10    1
    18    10    11   am
    19    11    12    2
    20    11    14    1
    21    14    15   ar
    22    15    16   ar
    23    16    17   ar
    24    17    18   ar
    25    18    19    1
    26    18    20   ar
    27    20    21    1
    28    20    22   ar
    29    22    23   ar
    30     9     1    1
    31    23    14   ar
    32     7     2   ar
    33    22    16   ar
    34    10    13    1
    35    23    24    1
