@<TRIPOS>MOLECULE
*****
 37 39 0 0 0
SMALL
GASTEIGER

@<TRIPOS>ATOM
      1 C         138.9948  142.6034  161.7966 C.2     1  UNL1        0.2485
      2 O         138.0155  143.7396  161.7929 O.2     1  UNL1       -0.2726
      3 N         139.9676  142.4481  160.6654 N.am    1  UNL1       -0.2823
      4 H         140.6104  141.7023  160.6678 H       1  UNL1        0.1549
      5 C         137.6709  138.0343  161.7172 C.3     1  UNL1        0.0949
      6 C         138.0633  139.4798  161.6376 C.2     1  UNL1        0.2269
      7 O         137.9459  140.2184  160.3374 O.2     1  UNL1       -0.2748
      8 N         138.5732  140.1868  162.8584 N.am    1  UNL1       -0.2655
      9 C         138.7445  139.5822  164.2204 C.3     1  UNL1        0.1206
     10 C         139.2784  140.6443  165.1353 C.ar    1  UNL1       -0.0030
     11 C         139.6406  140.6260  166.5907 C.ar    1  UNL1        0.0155
     12 C         140.1615  141.8687  167.2496 C.ar    1  UNL1        0.1054
     13 C         140.3203  143.1298  166.4529 C.ar    1  UNL1        0.0181
     14 C         139.9581  143.1480  164.9975 C.ar    1  UNL1       -0.0011
     15 C         139.4372  141.9053  164.3386 C.ar    1  UNL1        0.0022
     16 C         139.0013  141.6225  162.9315 C.3     1  UNL1        0.1750
     17 S         140.5237  141.8505  168.7051 S.O2    1  UNL1        0.0104
     18 C         140.8859  141.8324  170.1606 C.3     1  UNL1        0.1816
     19 O         140.6881  140.3608  168.6456 O.2     1  UNL1       -0.1686
     20 O         140.3594  143.3403  168.7646 O.2     1  UNL1       -0.1686
     21 C         139.9611  143.4289  159.5305 C.ar    1  UNL1        0.0503
     22 C         140.6856  144.7355  159.6643 C.ar    1  UNL1        0.0144
     23 C         140.6790  145.7164  158.5294 C.ar    1  UNL1       -0.0002
     24 C         139.9479  145.3906  157.2609 C.ar    1  UNL1        0.0182
     25 C         139.2234  144.0840  157.1271 C.ar    1  UNL1       -0.0002
     26 C         139.2300  143.1031  158.2620 C.ar    1  UNL1        0.0144
     27 C         139.9413  146.3714  156.1259 C.3     1  UNL1        0.2827
     28 O         139.3617  147.4165  157.0324 O.3     1  UNL1       -0.3692
     29 H         139.2328  148.2398  156.5359 H       1  UNL1        0.2112
     30 C         139.9347  147.3521  154.9910 C.3     1  UNL1        0.4311
     31 F         139.9282  148.3329  153.8560 F       1  UNL1       -0.1669
     32 F         138.4348  147.3561  155.0031 F       1  UNL1       -0.1669
     33 F         140.8133  147.4204  154.9021 F       1  UNL1       -0.1669
     34 C         140.5209  145.3262  155.2194 C.3     1  UNL1        0.4311
     35 F         141.1005  144.2810  154.3129 F       1  UNL1       -0.1669
     36 F         139.7925  145.1876  154.7349 F       1  UNL1       -0.1669
     37 F         141.9361  145.1782  155.6942 F       1  UNL1       -0.1669
@<TRIPOS>BOND
     1     5     6    1
     2     6     7    2
     3     6     8   am
     4     8     9    1
     5     9    10    1
     6    10    11   ar
     7    11    12   ar
     8    12    17    1
     9    17    18    1
    10    17    19    2
    11    17    20    2
    12    12    13   ar
    13    13    14   ar
    14    14    15   ar
    15    15    16    1
    16    16     1    1
    17     1     2    2
    18     1     3   am
    19     3    21    1
    20    21    22   ar
    21    22    23   ar
    22    23    24   ar
    23    24    27    1
    24    27    28    1
    25    27    30    1
    26    30    31    1
    27    30    32    1
    28    30    33    1
    29    27    34    1
    30    34    35    1
    31    34    36    1
    32    34    37    1
    33    24    25   ar
    34    25    26   ar
    35    16     8    1
    36    26    21   ar
    37    15    10   ar
    38     3     4    1
    39    28    29    1
@<TRIPOS>MOLECULE
*****
 37 39 0 0 0
SMALL
GASTEIGER

@<TRIPOS>ATOM
      1 C         141.6411  142.6647  162.4484 C.2     1  UNL1        0.2485
      2 O         140.9117  141.3827  162.7207 O.2     1  UNL1       -0.2726
      3 N         142.1554  143.4918  163.5893 N.am    1  UNL1       -0.2823
      4 H         142.6341  144.3333  163.4107 H       1  UNL1        0.1549
      5 C         139.7656  146.4645  160.2852 C.3     1  UNL1        0.0949
      6 C         140.3028  145.2952  161.0558 C.2     1  UNL1        0.2269
      7 O         139.9019  145.0920  162.4868 O.2     1  UNL1       -0.2748
      8 N         141.2410  144.3289  160.3953 N.am    1  UNL1       -0.2655
      9 C         141.7288  144.4021  158.9787 C.3     1  UNL1        0.1206
     10 C         142.6454  143.2382  158.7434 C.ar    1  UNL1       -0.0030
     11 C         143.4185  142.7977  157.5358 C.ar    1  UNL1        0.0155
     12 C         144.2703  141.5647  157.5994 C.ar    1  UNL1        0.1054
     13 C         144.3490  140.7722  158.8706 C.ar    1  UNL1        0.0181
     14 C         143.5759  141.2128  160.0781 C.ar    1  UNL1       -0.0011
     15 C         142.7241  142.4458  160.0145 C.ar    1  UNL1        0.0022
     16 C         141.8561  143.1198  161.0354 C.3     1  UNL1        0.1750
     17 S         145.0434  141.1241  156.3919 S.O2    1  UNL1        0.0104
     18 C         145.8166  140.6835  155.1844 C.3     1  UNL1        0.1816
     19 O         145.1289  142.5477  155.9271 O.2     1  UNL1       -0.1686
     20 O         144.9580  139.7005  156.8566 O.2     1  UNL1       -0.1686
     21 C         141.9404  143.0367  165.0024 C.ar    1  UNL1        0.0503
     22 C         143.0765  142.4405  165.7794 C.ar    1  UNL1        0.0144
     23 C         142.8614  141.9854  167.1924 C.ar    1  UNL1       -0.0002
     24 C         141.5103  142.1265  167.8283 C.ar    1  UNL1        0.0182
     25 C         140.3742  142.7226  167.0512 C.ar    1  UNL1       -0.0002
     26 C         140.5892  143.1778  165.6382 C.ar    1  UNL1        0.0144
     27 C         141.2951  141.6714  169.2414 C.3     1  UNL1        0.2827
     28 O         141.5274  140.2508  168.8193 O.3     1  UNL1       -0.3692
     29 H         141.4463  139.6672  169.5898 H       1  UNL1        0.2112
     30 C         141.0800  141.2164  170.6544 C.3     1  UNL1        0.4311
     31 F         140.8648  140.7614  172.0675 F       1  UNL1       -0.1669
     32 F         139.8403  140.4860  170.2305 F       1  UNL1       -0.1669
     33 F         141.7910  141.6117  171.0046 F       1  UNL1       -0.1669
     34 C         141.0628  143.0919  169.6634 C.3     1  UNL1        0.4311
     35 F         140.8306  144.5125  170.0854 F       1  UNL1       -0.1669
     36 F         141.8875  143.3827  169.5221 F       1  UNL1       -0.1669
     37 F         139.6138  143.1235  170.0498 F       1  UNL1       -0.1669
@<TRIPOS>BOND
     1     5     6    1
     2     6     7    2
     3     6     8   am
     4     8     9    1
     5     9    10    1
     6    10    11   ar
     7    11    12   ar
     8    12    17    1
     9    17    18    1
    10    17    19    2
    11    17    20    2
    12    12    13   ar
    13    13    14   ar
    14    14    15   ar
    15    15    16    1
    16    16     1    1
    17     1     2    2
    18     1     3   am
    19     3    21    1
    20    21    22   ar
    21    22    23   ar
    22    23    24   ar
    23    24    27    1
    24    27    28    1
    25    27    30    1
    26    30    31    1
    27    30    32    1
    28    30    33    1
    29    27    34    1
    30    34    35    1
    31    34    36    1
    32    34    37    1
    33    24    25   ar
    34    25    26   ar
    35    16     8    1
    36    26    21   ar
    37    15    10   ar
    38     3     4    1
    39    28    29    1
@<TRIPOS>MOLECULE
*****
 37 39 0 0 0
SMALL
GASTEIGER

@<TRIPOS>ATOM
      1 C         142.5638  137.9912  158.2082 C.2     1  UNL1        0.2485
      2 O         143.7104  138.9067  157.8968 O.2     1  UNL1       -0.2726
      3 N         141.9320  138.0164  159.5685 N.am    1  UNL1       -0.2823
      4 H         141.1794  137.4155  159.7729 H       1  UNL1        0.1549
      5 C         138.8714  138.6235  155.2751 C.3     1  UNL1        0.0949
      6 C         140.0143  138.5212  156.2411 C.2     1  UNL1        0.2269
      7 O         140.2946  139.6460  157.1931 O.2     1  UNL1       -0.2748
      8 N         140.8770  137.2942  156.2552 N.am    1  UNL1       -0.2655
      9 C         140.7193  136.0953  155.3677 C.3     1  UNL1        0.1206
     10 C         141.7936  135.1107  155.7232 C.ar    1  UNL1       -0.0030
     11 C         142.1298  133.7529  155.1818 C.ar    1  UNL1        0.0155
     12 C         143.2877  132.9855  155.7476 C.ar    1  UNL1        0.1054
     13 C         144.1094  133.5759  156.8550 C.ar    1  UNL1        0.0181
     14 C         143.7732  134.9337  157.3964 C.ar    1  UNL1       -0.0011
     15 C         142.6153  135.7011  156.8306 C.ar    1  UNL1        0.0022
     16 C         142.0488  137.0505  157.1593 C.3     1  UNL1        0.1750
     17 S         143.6240  131.6276  155.2062 S.O2    1  UNL1        0.0104
     18 C         143.9601  130.2697  154.6647 C.3     1  UNL1        0.1816
     19 O         145.0169  131.7566  155.7475 O.2     1  UNL1       -0.1686
     20 O         142.2310  131.4986  154.6648 O.2     1  UNL1       -0.1686
     21 C         142.4470  138.9570  160.6173 C.ar    1  UNL1        0.0503
     22 C         143.5897  138.5459  161.4977 C.ar    1  UNL1        0.0144
     23 C         144.1046  139.4865  162.5465 C.ar    1  UNL1       -0.0002
     24 C         143.4768  140.8383  162.7148 C.ar    1  UNL1        0.0182
     25 C         142.3341  141.2495  161.8344 C.ar    1  UNL1       -0.0002
     26 C         141.8192  140.3089  160.7856 C.ar    1  UNL1        0.0144
     27 C         143.9917  141.7791  163.7636 C.3     1  UNL1        0.2827
     28 O         143.5756  140.8139  164.8338 O.3     1  UNL1       -0.3692
     29 H         143.7999  141.1794  165.7038 H       1  UNL1        0.2112
     30 C         144.5066  142.7199  164.8123 C.3     1  UNL1        0.4311
     31 F         145.0216  143.6607  165.8610 F       1  UNL1       -0.1669
     32 F         143.1005  142.9936  165.2571 F       1  UNL1       -0.1669
     33 F         145.3678  142.6272  164.6271 F       1  UNL1       -0.1669
     34 C         144.4078  142.7443  162.6934 C.3     1  UNL1        0.4311
     35 F         144.8238  143.7096  161.6232 F       1  UNL1       -0.1669
     36 F         143.7879  143.3565  162.8533 F       1  UNL1       -0.1669
     37 F         145.5842  142.0795  162.0423 F       1  UNL1       -0.1669
@<TRIPOS>BOND
     1     5     6    1
     2     6     7    2
     3     6     8   am
     4     8     9    1
     5     9    10    1
     6    10    11   ar
     7    11    12   ar
     8    12    17    1
     9    17    18    1
    10    17    19    2
    11    17    20    2
    12    12    13   ar
    13    13    14   ar
    14    14    15   ar
    15    15    16    1
    16    16     1    1
    17     1     2    2
    18     1     3   am
    19     3    21    1
    20    21    22   ar
    21    22    23   ar
    22    23    24   ar
    23    24    27    1
    24    27    28    1
    25    27    30    1
    26    30    31    1
    27    30    32    1
    28    30    33    1
    29    27    34    1
    30    34    35    1
    31    34    36    1
    32    34    37    1
    33    24    25   ar
    34    25    26   ar
    35    16     8    1
    36    26    21   ar
    37    15    10   ar
    38     3     4    1
    39    28    29    1
@<TRIPOS>MOLECULE
*****
 37 39 0 0 0
SMALL
GASTEIGER

@<TRIPOS>ATOM
      1 C         141.5915  139.0393  158.6178 C.2     1  UNL1        0.2485
      2 O         142.2733  138.0479  159.5133 O.2     1  UNL1       -0.2726
      3 N         140.4480  139.8585  159.1391 N.am    1  UNL1       -0.2823
      4 H         140.0005  140.5092  158.5513 H       1  UNL1        0.1549
      5 C         139.4470  137.5415  154.6436 C.3     1  UNL1        0.0949
      6 C         140.0417  137.9705  155.9521 C.2     1  UNL1        0.2269
      7 O         139.3375  137.6496  157.2371 O.2     1  UNL1       -0.2748
      8 N         141.3406  138.7204  155.9757 N.am    1  UNL1       -0.2655
      9 C         142.1552  139.1107  154.7782 C.3     1  UNL1        0.1206
     10 C         143.3710  139.8432  155.2633 C.ar    1  UNL1       -0.0030
     11 C         144.5275  140.4614  154.5350 C.ar    1  UNL1        0.0155
     12 C         145.6207  141.1420  155.3042 C.ar    1  UNL1        0.1054
     13 C         145.5575  141.2044  156.8015 C.ar    1  UNL1        0.0181
     14 C         144.4011  140.5862  157.5298 C.ar    1  UNL1       -0.0011
     15 C         143.3078  139.9056  156.7607 C.ar    1  UNL1        0.0022
     16 C         142.0530  139.2117  157.2009 C.3     1  UNL1        0.1750
     17 S         146.7772  141.7602  154.5759 S.O2    1  UNL1        0.0104
     18 C         147.9337  142.3785  153.8476 C.3     1  UNL1        0.1816
     19 O         147.3995  142.1403  155.8867 O.2     1  UNL1       -0.1686
     20 O         146.1549  141.3802  153.2651 O.2     1  UNL1       -0.1686
     21 C         139.9866  139.6861  160.5559 C.ar    1  UNL1        0.0503
     22 C         140.7551  140.3199  161.6773 C.ar    1  UNL1        0.0144
     23 C         140.2936  140.1476  163.0941 C.ar    1  UNL1       -0.0002
     24 C         139.0636  139.3414  163.3894 C.ar    1  UNL1        0.0182
     25 C         138.2952  138.7075  162.2679 C.ar    1  UNL1       -0.0002
     26 C         138.7566  138.8799  160.8511 C.ar    1  UNL1        0.0144
     27 C         138.6021  139.1689  164.8062 C.3     1  UNL1        0.2827
     28 O         137.6922  140.3517  164.6538 O.3     1  UNL1       -0.3692
     29 H         137.2147  140.5015  165.4848 H       1  UNL1        0.2112
     30 C         138.1406  138.9964  166.2230 C.3     1  UNL1        0.4311
     31 F         137.6791  138.8240  167.6398 F       1  UNL1       -0.1669
     32 F         138.8135  140.2833  166.5988 F       1  UNL1       -0.1669
     33 F         137.7130  138.2298  166.1048 F       1  UNL1       -0.1669
     34 C         139.5120  137.9862  164.9586 C.3     1  UNL1        0.4311
     35 F         140.4218  136.8033  165.1109 F       1  UNL1       -0.1669
     36 F         139.0111  137.4067  164.5137 F       1  UNL1       -0.1669
     37 F         140.6697  138.5183  165.7500 F       1  UNL1       -0.1669
@<TRIPOS>BOND
     1     5     6    1
     2     6     7    2
     3     6     8   am
     4     8     9    1
     5     9    10    1
     6    10    11   ar
     7    11    12   ar
     8    12    17    1
     9    17    18    1
    10    17    19    2
    11    17    20    2
    12    12    13   ar
    13    13    14   ar
    14    14    15   ar
    15    15    16    1
    16    16     1    1
    17     1     2    2
    18     1     3   am
    19     3    21    1
    20    21    22   ar
    21    22    23   ar
    22    23    24   ar
    23    24    27    1
    24    27    28    1
    25    27    30    1
    26    30    31    1
    27    30    32    1
    28    30    33    1
    29    27    34    1
    30    34    35    1
    31    34    36    1
    32    34    37    1
    33    24    25   ar
    34    25    26   ar
    35    16     8    1
    36    26    21   ar
    37    15    10   ar
    38     3     4    1
    39    28    29    1
@<TRIPOS>MOLECULE
*****
 37 39 0 0 0
SMALL
GASTEIGER

@<TRIPOS>ATOM
      1 C         142.5466  137.9381  158.1337 C.2     1  UNL1        0.2485
      2 O         143.7181  138.8210  157.8208 O.2     1  UNL1       -0.2726
      3 N         141.9030  137.9975  159.4873 N.am    1  UNL1       -0.2823
      4 H         141.1341  137.4180  159.6927 H       1  UNL1        0.1549
      5 C         138.8183  138.5656  155.2454 C.3     1  UNL1        0.0949
      6 C         139.9731  138.4649  156.1974 C.2     1  UNL1        0.2269
      7 O         140.2652  139.5914  157.1438 O.2     1  UNL1       -0.2748
      8 N         140.8358  137.2378  156.2030 N.am    1  UNL1       -0.2655
      9 C         140.6670  136.0374  155.3195 C.3     1  UNL1        0.1206
     10 C         141.7456  135.0533  155.6635 C.ar    1  UNL1       -0.0030
     11 C         142.0749  133.6945  155.1202 C.ar    1  UNL1        0.0155
     12 C         143.2397  132.9280  155.6731 C.ar    1  UNL1        0.1054
     13 C         144.0751  133.5202  156.7691 C.ar    1  UNL1        0.0181
     14 C         143.7457  134.8790  157.3124 C.ar    1  UNL1       -0.0011
     15 C         142.5810  135.6456  156.7595 C.ar    1  UNL1        0.0022
     16 C         142.0187  136.9956  157.0929 C.3     1  UNL1        0.1750
     17 S         143.5691  131.5691  155.1298 S.O2    1  UNL1        0.0104
     18 C         143.8985  130.2103  154.5867 C.3     1  UNL1        0.1816
     19 O         142.1672  131.4357  154.6133 O.2     1  UNL1       -0.1686
     20 O         144.9710  131.7025  155.6464 O.2     1  UNL1       -0.1686
     21 C         142.4310  138.9400  160.5281 C.ar    1  UNL1        0.0503
     22 C         143.6007  138.5402  161.3777 C.ar    1  UNL1        0.0144
     23 C         144.1287  139.4826  162.4184 C.ar    1  UNL1       -0.0002
     24 C         143.4869  140.8248  162.6094 C.ar    1  UNL1        0.0182
     25 C         142.3171  141.2246  161.7598 C.ar    1  UNL1       -0.0002
     26 C         141.7891  140.2821  160.7191 C.ar    1  UNL1        0.0144
     27 C         144.0148  141.7673  163.6501 C.3     1  UNL1        0.2827
     28 O         144.3738  142.7516  162.5767 O.3     1  UNL1       -0.3692
     29 H         144.7730  143.5384  162.9799 H       1  UNL1        0.2112
     30 C         144.5426  142.7097  164.6909 C.3     1  UNL1        0.4311
     31 F         145.0705  143.6522  165.7317 F       1  UNL1       -0.1669
     32 F         145.9466  142.3676  164.2886 F       1  UNL1       -0.1669
     33 F         143.7578  142.9781  165.0016 F       1  UNL1       -0.1669
     34 C         143.6558  140.7830  164.7236 C.3     1  UNL1        0.4311
     35 F         143.2968  139.7986  165.7970 F       1  UNL1       -0.1669
     36 F         144.4822  140.5332  164.9218 F       1  UNL1       -0.1669
     37 F         142.1581  140.8409  164.7831 F       1  UNL1       -0.1669
@<TRIPOS>BOND
     1     5     6    1
     2     6     7    2
     3     6     8   am
     4     8     9    1
     5     9    10    1
     6    10    11   ar
     7    11    12   ar
     8    12    17    1
     9    17    18    1
    10    17    19    2
    11    17    20    2
    12    12    13   ar
    13    13    14   ar
    14    14    15   ar
    15    15    16    1
    16    16     1    1
    17     1     2    2
    18     1     3   am
    19     3    21    1
    20    21    22   ar
    21    22    23   ar
    22    23    24   ar
    23    24    27    1
    24    27    28    1
    25    27    30    1
    26    30    31    1
    27    30    32    1
    28    30    33    1
    29    27    34    1
    30    34    35    1
    31    34    36    1
    32    34    37    1
    33    24    25   ar
    34    25    26   ar
    35    16     8    1
    36    26    21   ar
    37    15    10   ar
    38     3     4    1
    39    28    29    1
@<TRIPOS>MOLECULE
*****
 37 39 0 0 0
SMALL
GASTEIGER

@<TRIPOS>ATOM
      1 C         140.4360  141.3703  161.1870 C.2     1  UNL1        0.2485
      2 O         141.7623  141.6385  161.8341 O.2     1  UNL1       -0.2726
      3 N         139.2730  140.9184  162.0197 N.am    1  UNL1       -0.2823
      4 H         138.4024  140.7423  161.5950 H       1  UNL1        0.1549
      5 C         139.8707  138.0066  157.8701 C.3     1  UNL1        0.0949
      6 C         140.0534  138.9885  158.9892 C.2     1  UNL1        0.2269
      7 O         140.1927  138.4998  160.4005 O.2     1  UNL1       -0.2748
      8 N         140.0967  140.4591  158.6971 N.am    1  UNL1       -0.2655
      9 C         139.9718  141.0932  157.3435 C.3     1  UNL1        0.1206
     10 C         140.0704  142.5799  157.5171 C.ar    1  UNL1       -0.0030
     11 C         140.0150  143.7111  156.5336 C.ar    1  UNL1        0.0155
     12 C         140.1455  145.1270  157.0111 C.ar    1  UNL1        0.1054
     13 C         140.3314  145.4118  158.4720 C.ar    1  UNL1        0.0181
     14 C         140.3868  144.2806  159.4555 C.ar    1  UNL1       -0.0011
     15 C         140.2564  142.8646  158.9780 C.ar    1  UNL1        0.0022
     16 C         140.2726  141.5539  159.7073 C.3     1  UNL1        0.1750
     17 S         140.0900  146.2583  156.0276 S.O2    1  UNL1        0.0104
     18 C         140.0346  147.3896  155.0442 C.3     1  UNL1        0.1816
     19 O         140.7988  145.4110  155.0129 O.2     1  UNL1       -0.1686
     20 O         139.3812  147.1056  157.0423 O.2     1  UNL1       -0.1686
     21 C         139.4364  140.7348  163.4994 C.ar    1  UNL1        0.0503
     22 C         139.7184  139.3721  164.0595 C.ar    1  UNL1        0.0144
     23 C         139.8818  139.1885  165.5392 C.ar    1  UNL1       -0.0002
     24 C         139.7633  140.3676  166.4588 C.ar    1  UNL1        0.0182
     25 C         139.4813  141.7302  165.8987 C.ar    1  UNL1       -0.0002
     26 C         139.3179  141.9138  164.4190 C.ar    1  UNL1        0.0144
     27 C         139.9267  140.1840  167.9386 C.3     1  UNL1        0.2827
     28 O         138.6904  139.3351  167.9699 O.3     1  UNL1       -0.3692
     29 H         138.5236  139.0403  168.8788 H       1  UNL1        0.2112
     30 C         140.0902  140.0006  169.4183 C.3     1  UNL1        0.4311
     31 F         140.2537  139.8171  170.8980 F       1  UNL1       -0.1669
     32 F         138.8428  140.7992  169.6552 F       1  UNL1       -0.1669
     33 F         140.8330  139.5192  169.3861 F       1  UNL1       -0.1669
     34 C         141.1630  141.0329  167.9072 C.3     1  UNL1        0.4311
     35 F         142.3993  141.8818  167.8758 F       1  UNL1       -0.1669
     36 F         141.6797  140.4553  167.4785 F       1  UNL1       -0.1669
     37 F         140.7540  142.2958  168.6057 F       1  UNL1       -0.1669
@<TRIPOS>BOND
     1     5     6    1
     2     6     7    2
     3     6     8   am
     4     8     9    1
     5     9    10    1
     6    10    11   ar
     7    11    12   ar
     8    12    17    1
     9    17    18    1
    10    17    19    2
    11    17    20    2
    12    12    13   ar
    13    13    14   ar
    14    14    15   ar
    15    15    16    1
    16    16     1    1
    17     1     2    2
    18     1     3   am
    19     3    21    1
    20    21    22   ar
    21    22    23   ar
    22    23    24   ar
    23    24    27    1
    24    27    28    1
    25    27    30    1
    26    30    31    1
    27    30    32    1
    28    30    33    1
    29    27    34    1
    30    34    35    1
    31    34    36    1
    32    34    37    1
    33    24    25   ar
    34    25    26   ar
    35    16     8    1
    36    26    21   ar
    37    15    10   ar
    38     3     4    1
    39    28    29    1
@<TRIPOS>MOLECULE
*****
 37 39 0 0 0
SMALL
GASTEIGER

@<TRIPOS>ATOM
      1 C         140.8937  142.2964  162.0018 C.2     1  UNL1        0.2485
      2 O         142.2330  142.8476  162.3919 O.2     1  UNL1       -0.2726
      3 N         139.9488  141.8042  163.0579 N.am    1  UNL1       -0.2823
      4 H         139.0697  141.4424  162.8019 H       1  UNL1        0.1549
      5 C         139.7026  138.4597  159.4529 C.3     1  UNL1        0.0949
      6 C         140.0920  139.6041  160.3409 C.2     1  UNL1        0.2269
      7 O         140.4428  139.3528  161.7775 O.2     1  UNL1       -0.2748
      8 N         140.1307  140.9997  159.7924 N.am    1  UNL1       -0.2655
      9 C         139.8076  141.4028  158.3842 C.3     1  UNL1        0.1206
     10 C         139.9764  142.8895  158.2773 C.ar    1  UNL1       -0.0030
     11 C         139.7962  143.8402  157.1312 C.ar    1  UNL1        0.0155
     12 C         140.0433  145.3066  157.3273 C.ar    1  UNL1        0.1054
     13 C         140.4707  145.8223  158.6695 C.ar    1  UNL1        0.0181
     14 C         140.6510  144.8715  159.8156 C.ar    1  UNL1       -0.0011
     15 C         140.4038  143.4051  159.6195 C.ar    1  UNL1        0.0022
     16 C         140.4991  142.2372  160.5559 C.3     1  UNL1        0.1750
     17 S         139.8631  146.2575  156.1812 S.O2    1  UNL1        0.0104
     18 C         139.6829  147.2083  155.0352 C.3     1  UNL1        0.1816
     19 O         140.4439  145.2394  155.2452 O.2     1  UNL1       -0.1686
     20 O         139.2823  147.2755  157.1172 O.2     1  UNL1       -0.1686
     21 C         140.3433  141.8634  164.5038 C.ar    1  UNL1        0.0503
     22 C         139.8065  142.9532  165.3837 C.ar    1  UNL1        0.0144
     23 C         140.2011  143.0124  166.8297 C.ar    1  UNL1       -0.0002
     24 C         141.1324  141.9818  167.3957 C.ar    1  UNL1        0.0182
     25 C         141.6692  140.8920  166.5158 C.ar    1  UNL1       -0.0002
     26 C         141.2746  140.8328  165.0698 C.ar    1  UNL1        0.0144
     27 C         141.5270  142.0409  168.8417 C.3     1  UNL1        0.2827
     28 O         142.8710  142.5816  168.4529 O.3     1  UNL1       -0.3692
     29 H         143.4013  142.7342  169.2507 H       1  UNL1        0.2112
     30 C         141.9215  142.1000  170.2877 C.3     1  UNL1        0.4311
     31 F         142.3160  142.1590  171.7337 F       1  UNL1       -0.1669
     32 F         142.0137  143.5946  170.2015 F       1  UNL1       -0.1669
     33 F         141.8959  141.2282  170.4424 F       1  UNL1       -0.1669
     34 C         140.1829  141.5002  169.2305 C.3     1  UNL1        0.4311
     35 F         138.8389  140.9593  169.6193 F       1  UNL1       -0.1669
     36 F         140.2831  140.6954  168.8742 F       1  UNL1       -0.1669
     37 F         139.5316  142.6370  169.9608 F       1  UNL1       -0.1669
@<TRIPOS>BOND
     1     5     6    1
     2     6     7    2
     3     6     8   am
     4     8     9    1
     5     9    10    1
     6    10    11   ar
     7    11    12   ar
     8    12    17    1
     9    17    18    1
    10    17    19    2
    11    17    20    2
    12    12    13   ar
    13    13    14   ar
    14    14    15   ar
    15    15    16    1
    16    16     1    1
    17     1     2    2
    18     1     3   am
    19     3    21    1
    20    21    22   ar
    21    22    23   ar
    22    23    24   ar
    23    24    27    1
    24    27    28    1
    25    27    30    1
    26    30    31    1
    27    30    32    1
    28    30    33    1
    29    27    34    1
    30    34    35    1
    31    34    36    1
    32    34    37    1
    33    24    25   ar
    34    25    26   ar
    35    16     8    1
    36    26    21   ar
    37    15    10   ar
    38     3     4    1
    39    28    29    1
@<TRIPOS>MOLECULE
*****
 37 39 0 0 0
SMALL
GASTEIGER

@<TRIPOS>ATOM
      1 C         141.4964  141.0312  162.0652 C.2     1  UNL1        0.2485
      2 O         140.1821  140.5105  162.5664 O.2     1  UNL1       -0.2726
      3 N         142.5576  141.4506  163.0390 N.am    1  UNL1       -0.2823
      4 H         143.4203  141.7923  162.7100 H       1  UNL1        0.1549
      5 C         141.3806  144.9306  159.3418 C.3     1  UNL1        0.0949
      6 C         141.3920  143.7638  160.2843 C.2     1  UNL1        0.2269
      7 O         141.0936  143.9722  161.7394 O.2     1  UNL1       -0.2748
      8 N         141.7017  142.3885  159.7716 N.am    1  UNL1       -0.2655
      9 C         142.0178  142.0278  158.3504 C.3     1  UNL1        0.1206
     10 C         142.2612  140.5489  158.2905 C.ar    1  UNL1       -0.0030
     11 C         142.6122  139.6346  157.1544 C.ar    1  UNL1        0.0155
     12 C         142.7976  138.1670  157.4026 C.ar    1  UNL1        0.1054
     13 C         142.6319  137.6136  158.7869 C.ar    1  UNL1        0.0181
     14 C         142.2808  138.5279  159.9231 C.ar    1  UNL1       -0.0011
     15 C         142.0955  139.9955  159.6749 C.ar    1  UNL1        0.0022
     16 C         141.7497  141.1325  160.5902 C.3     1  UNL1        0.1750
     17 S         143.1487  137.2526  156.2665 S.O2    1  UNL1        0.0104
     18 C         143.4998  136.3384  155.1304 C.3     1  UNL1        0.1816
     19 O         141.9097  136.4493  156.5300 O.2     1  UNL1       -0.1686
     20 O         144.3877  138.0560  156.0029 O.2     1  UNL1       -0.1686
     21 C         142.3043  141.3492  164.5140 C.ar    1  UNL1        0.0503
     22 C         142.6045  140.0717  165.2405 C.ar    1  UNL1        0.0144
     23 C         142.3512  139.9704  166.7155 C.ar    1  UNL1       -0.0002
     24 C         141.7977  141.1466  167.4638 C.ar    1  UNL1        0.0182
     25 C         141.4975  142.4241  166.7373 C.ar    1  UNL1       -0.0002
     26 C         141.7508  142.5254  165.2623 C.ar    1  UNL1        0.0144
     27 C         141.5443  141.0453  168.9389 C.3     1  UNL1        0.2827
     28 O         140.3000  140.2518  168.6708 O.3     1  UNL1       -0.3692
     29 H         139.8774  140.0190  169.5123 H       1  UNL1        0.2112
     30 C         141.2911  140.9442  170.4139 C.3     1  UNL1        0.4311
     31 F         141.0378  140.8430  171.8889 F       1  UNL1       -0.1669
     32 F         140.0391  141.7548  170.2545 F       1  UNL1       -0.1669
     33 F         142.0066  140.4618  170.6135 F       1  UNL1       -0.1669
     34 C         142.7887  141.8389  169.2069 C.3     1  UNL1        0.4311
     35 F         144.0331  142.6324  169.4750 F       1  UNL1       -0.1669
     36 F         143.3691  141.2012  169.0045 F       1  UNL1       -0.1669
     37 F         142.2772  143.1812  169.6389 F       1  UNL1       -0.1669
@<TRIPOS>BOND
     1     5     6    1
     2     6     7    2
     3     6     8   am
     4     8     9    1
     5     9    10    1
     6    10    11   ar
     7    11    12   ar
     8    12    17    1
     9    17    18    1
    10    17    19    2
    11    17    20    2
    12    12    13   ar
    13    13    14   ar
    14    14    15   ar
    15    15    16    1
    16    16     1    1
    17     1     2    2
    18     1     3   am
    19     3    21    1
    20    21    22   ar
    21    22    23   ar
    22    23    24   ar
    23    24    27    1
    24    27    28    1
    25    27    30    1
    26    30    31    1
    27    30    32    1
    28    30    33    1
    29    27    34    1
    30    34    35    1
    31    34    36    1
    32    34    37    1
    33    24    25   ar
    34    25    26   ar
    35    16     8    1
    36    26    21   ar
    37    15    10   ar
    38     3     4    1
    39    28    29    1
@<TRIPOS>MOLECULE
*****
 37 39 0 0 0
SMALL
GASTEIGER

@<TRIPOS>ATOM
      1 C         140.2467  139.8871  161.0293 C.2     1  UNL1        0.2485
      2 O         139.1868  138.8551  160.7816 O.2     1  UNL1       -0.2726
      3 N         141.4513  139.9538  160.1379 N.am    1  UNL1       -0.2823
      4 H         142.1471  140.6311  160.3004 H       1  UNL1        0.1549
      5 C         140.0347  144.6357  160.8259 C.3     1  UNL1        0.0949
      6 C         140.1108  143.1383  160.7828 C.2     1  UNL1        0.2269
      7 O         140.2580  142.4324  159.4676 O.2     1  UNL1       -0.2748
      8 N         140.0397  142.3468  162.0550 N.am    1  UNL1       -0.2655
      9 C         139.8936  142.9107  163.4373 C.3     1  UNL1        0.1206
     10 C         139.8658  141.7648  164.4049 C.ar    1  UNL1       -0.0030
     11 C         139.7398  141.7154  165.8987 C.ar    1  UNL1        0.0155
     12 C         139.7426  140.3939  166.6083 C.ar    1  UNL1        0.1054
     13 C         139.8715  139.1217  165.8240 C.ar    1  UNL1        0.0181
     14 C         139.9976  139.1711  164.3302 C.ar    1  UNL1       -0.0011
     15 C         139.9947  140.4927  163.6206 C.ar    1  UNL1        0.0022
     16 C         140.1022  140.8524  162.1683 C.3     1  UNL1        0.1750
     17 S         139.6166  140.3444  168.1022 S.O2    1  UNL1        0.0104
     18 C         139.4906  140.2949  169.5961 C.3     1  UNL1        0.1816
     19 O         140.6272  141.4462  168.2240 O.2     1  UNL1       -0.1686
     20 O         138.6061  139.2427  167.9804 O.2     1  UNL1       -0.1686
     21 C         141.5959  138.9885  158.9989 C.ar    1  UNL1        0.0503
     22 C         140.7072  139.1087  157.7965 C.ar    1  UNL1        0.0144
     23 C         140.8517  138.1434  156.6575 C.ar    1  UNL1       -0.0002
     24 C         141.8850  137.0580  156.7210 C.ar    1  UNL1        0.0182
     25 C         142.7737  136.9378  157.9233 C.ar    1  UNL1       -0.0002
     26 C         142.6292  137.9031  159.0623 C.ar    1  UNL1        0.0144
     27 C         142.0296  136.0926  155.5820 C.3     1  UNL1        0.2827
     28 O         140.5898  135.6998  155.7320 O.3     1  UNL1       -0.3692
     29 H         140.3676  135.0266  155.0699 H       1  UNL1        0.2112
     30 C         142.1743  135.1273  154.4430 C.3     1  UNL1        0.4311
     31 F         142.3190  134.1620  153.3040 F       1  UNL1       -0.1669
     32 F         141.8368  133.9915  155.3628 F       1  UNL1       -0.1669
     33 F         142.3826  135.7234  153.8219 F       1  UNL1       -0.1669
     34 C         143.4695  136.4855  155.4320 C.3     1  UNL1        0.4311
     35 F         144.9093  136.8784  155.2819 F       1  UNL1       -0.1669
     36 F         143.3268  137.3136  155.1518 F       1  UNL1       -0.1669
     37 F         144.2257  135.2565  155.8415 F       1  UNL1       -0.1669
@<TRIPOS>BOND
     1     5     6    1
     2     6     7    2
     3     6     8   am
     4     8     9    1
     5     9    10    1
     6    10    11   ar
     7    11    12   ar
     8    12    17    1
     9    17    18    1
    10    17    19    2
    11    17    20    2
    12    12    13   ar
    13    13    14   ar
    14    14    15   ar
    15    15    16    1
    16    16     1    1
    17     1     2    2
    18     1     3   am
    19     3    21    1
    20    21    22   ar
    21    22    23   ar
    22    23    24   ar
    23    24    27    1
    24    27    28    1
    25    27    30    1
    26    30    31    1
    27    30    32    1
    28    30    33    1
    29    27    34    1
    30    34    35    1
    31    34    36    1
    32    34    37    1
    33    24    25   ar
    34    25    26   ar
    35    16     8    1
    36    26    21   ar
    37    15    10   ar
    38     3     4    1
    39    28    29    1
