@<TRIPOS>MOLECULE
*****
 35 37 0 0 0
SMALL
GASTEIGER

@<TRIPOS>ATOM
      1 C         142.9866  140.4429  165.3929 C.2     1  UNL1        0.2521
      2 O         144.0304  139.3683  165.3169 O.2     1  UNL1       -0.2698
      3 N         142.6758  141.2735  164.1832 N.am    1  UNL1       -0.2725
      4 C         141.6320  142.3482  164.2593 C.3     1  UNL1        0.1151
      5 C         141.3212  143.1788  163.0496 C.3     1  UNL1        0.1124
      6 N         142.0542  142.9348  161.7637 N.pl3   1  UNL1       -0.3016
      7 C         143.0979  141.8602  161.6877 C.3     1  UNL1        0.1124
      8 C         143.4087  141.0296  162.8974 C.3     1  UNL1        0.1151
      9 C         140.9273  140.0301  166.9222 C.ar    1  UNL1        0.1432
     10 C         140.1944  140.2741  168.2080 C.ar    1  UNL1        0.0384
     11 C         140.7878  141.1749  169.2503 C.ar    1  UNL1        0.0215
     12 C         142.1142  141.8317  169.0068 C.ar    1  UNL1        0.1061
     13 C         142.8471  141.5877  167.7211 C.ar    1  UNL1        0.0259
     14 C         142.2536  140.6869  166.6787 C.ar    1  UNL1        0.0887
     15 S         142.7077  142.7325  170.0491 S.O2    1  UNL1        0.0105
     16 C         143.3011  143.6332  171.0914 C.3     1  UNL1        0.1816
     17 O         144.0366  142.6570  169.3576 O.2     1  UNL1       -0.1686
     18 O         141.3787  142.8079  170.7406 O.2     1  UNL1       -0.1686
     19 O         140.3338  139.1294  165.8799 O.3     1  UNL1       -0.4702
     20 C         138.0999  140.1436  165.0250 C.3     1  UNL1        0.0566
     21 C         138.8446  139.0440  165.7223 C.3     1  UNL1        0.2599
     22 C         138.1000  137.8589  166.2619 C.3     1  UNL1        0.4340
     23 F         137.3553  136.6739  166.8016 F       1  UNL1       -0.1664
     24 F         138.8498  136.9604  165.3236 F       1  UNL1       -0.1664
     25 F         137.3501  138.7574  167.2002 F       1  UNL1       -0.1664
     26 C         141.7433  143.7654  160.5540 C.ar    1  UNL1        0.0868
     27 C         140.5518  144.6766  160.5559 C.ar    1  UNL1        0.1165
     28 N         140.2409  145.5073  159.3461 N.ar    1  UNL1       -0.2205
     29 C         141.1217  145.4267  158.1345 C.ar    1  UNL1        0.2352
     30 N         142.3132  144.5155  158.1327 N.ar    1  UNL1       -0.2205
     31 C         142.6240  143.6848  159.3424 C.ar    1  UNL1        0.1165
     32 C         140.8108  146.2573  156.9248 C.3     1  UNL1        0.4523
     33 F         140.5000  147.0879  155.7151 F       1  UNL1       -0.1632
     34 F         139.6001  146.8109  157.6160 F       1  UNL1       -0.1632
     35 F         142.0216  145.7037  156.2336 F       1  UNL1       -0.1632
@<TRIPOS>BOND
     1    20    21    1
     2    21    19    1
     3    19     9    1
     4     9    10   ar
     5    10    11   ar
     6    11    12   ar
     7    12    15    1
     8    15    16    1
     9    15    17    2
    10    15    18    2
    11    12    13   ar
    12    13    14   ar
    13    14     1    1
    14     1     2    2
    15     1     3   am
    16     3     4    1
    17     4     5    1
    18     5     6    1
    19     6    26    1
    20    26    27   ar
    21    27    28   ar
    22    28    29   ar
    23    29    32    1
    24    32    33    1
    25    32    34    1
    26    32    35    1
    27    29    30   ar
    28    30    31   ar
    29     6     7    1
    30     7     8    1
    31    21    22    1
    32    22    23    1
    33    22    24    1
    34    22    25    1
    35    14     9   ar
    36     8     3    1
    37    31    26   ar
@<TRIPOS>MOLECULE
*****
 35 37 0 0 0
SMALL
GASTEIGER

@<TRIPOS>ATOM
      1 C         139.2286  142.2966  164.5277 C.2     1  UNL1        0.2521
      2 O         137.9745  143.1039  164.3680 O.2     1  UNL1       -0.2698
      3 N         140.1708  142.1380  163.3714 N.am    1  UNL1       -0.2725
      4 C         141.4249  141.3306  163.5312 C.3     1  UNL1        0.1151
      5 C         142.3672  141.1719  162.3749 C.3     1  UNL1        0.1124
      6 N         142.0553  141.8206  161.0588 N.pl3   1  UNL1       -0.3016
      7 C         140.8013  142.6280  160.8991 C.3     1  UNL1        0.1124
      8 C         139.8590  142.7866  162.0554 C.3     1  UNL1        0.1151
      9 C         138.9986  140.2842  166.1548 C.ar    1  UNL1        0.1432
     10 C         139.3105  139.6356  167.4708 C.ar    1  UNL1        0.0384
     11 C         140.1642  140.3506  168.4758 C.ar    1  UNL1        0.0215
     12 C         140.7060  141.7143  168.1647 C.ar    1  UNL1        0.1061
     13 C         140.3941  142.3629  166.8487 C.ar    1  UNL1        0.0259
     14 C         139.5404  141.6479  165.8438 C.ar    1  UNL1        0.0887
     15 S         141.5597  142.4293  169.1697 S.O2    1  UNL1        0.0105
     16 C         142.4134  143.1443  170.1747 C.3     1  UNL1        0.1816
     17 O         142.5827  141.3360  169.0786 O.2     1  UNL1       -0.1686
     18 O         140.5367  143.5226  169.2608 O.2     1  UNL1       -0.1686
     19 O         138.1449  139.5692  165.1498 O.3     1  UNL1       -0.4702
     20 C         138.4278  138.9224  162.6495 C.3     1  UNL1        0.0566
     21 C         138.7842  138.7190  164.0923 C.3     1  UNL1        0.2599
     22 C         139.7800  137.6653  164.4775 C.3     1  UNL1        0.4340
     23 F         140.7756  136.6117  164.8626 F       1  UNL1       -0.1664
     24 F         140.7692  138.2470  163.5115 F       1  UNL1       -0.1664
     25 F         138.7908  137.0837  165.4434 F       1  UNL1       -0.1664
     26 C         142.9975  141.6620  159.9025 C.ar    1  UNL1        0.0868
     27 C         143.2818  140.2973  159.3485 C.ar    1  UNL1        0.1165
     28 N         144.2241  140.1386  158.1922 N.ar    1  UNL1       -0.2205
     29 C         144.8820  141.3447  157.5899 C.ar    1  UNL1        0.2352
     30 N         144.5977  142.7093  158.1439 N.ar    1  UNL1       -0.2205
     31 C         143.6554  142.8679  159.3002 C.ar    1  UNL1        0.1165
     32 C         145.8242  141.1860  156.4336 C.3     1  UNL1        0.4523
     33 F         146.7665  141.0273  155.2773 F       1  UNL1       -0.1632
     34 F         146.4523  142.5075  156.7640 F       1  UNL1       -0.1632
     35 F         145.1962  139.8645  156.1032 F       1  UNL1       -0.1632
@<TRIPOS>BOND
     1    20    21    1
     2    21    19    1
     3    19     9    1
     4     9    10   ar
     5    10    11   ar
     6    11    12   ar
     7    12    15    1
     8    15    16    1
     9    15    17    2
    10    15    18    2
    11    12    13   ar
    12    13    14   ar
    13    14     1    1
    14     1     2    2
    15     1     3   am
    16     3     4    1
    17     4     5    1
    18     5     6    1
    19     6    26    1
    20    26    27   ar
    21    27    28   ar
    22    28    29   ar
    23    29    32    1
    24    32    33    1
    25    32    34    1
    26    32    35    1
    27    29    30   ar
    28    30    31   ar
    29     6     7    1
    30     7     8    1
    31    21    22    1
    32    22    23    1
    33    22    24    1
    34    22    25    1
    35    14     9   ar
    36     8     3    1
    37    31    26   ar
@<TRIPOS>MOLECULE
*****
 35 37 0 0 0
SMALL
GASTEIGER

@<TRIPOS>ATOM
      1 C         139.7364  139.6367  165.0684 C.2     1  UNL1        0.2521
      2 O         138.7979  138.4691  164.9906 O.2     1  UNL1       -0.2698
      3 N         139.8853  140.5589  163.8948 N.am    1  UNL1       -0.2725
      4 C         140.8238  141.7264  163.9727 C.3     1  UNL1        0.1151
      5 C         140.9726  142.6486  162.7990 C.3     1  UNL1        0.1124
      6 N         140.1829  142.4032  161.5475 N.pl3   1  UNL1       -0.3016
      7 C         139.2445  141.2357  161.4697 C.3     1  UNL1        0.1124
      8 C         139.0956  140.3135  162.6433 C.3     1  UNL1        0.1151
      9 C         141.8281  139.1695  166.5370 C.ar    1  UNL1        0.1432
     10 C         142.6177  139.4149  167.7885 C.ar    1  UNL1        0.0384
     11 C         142.1054  140.3728  168.8229 C.ar    1  UNL1        0.0215
     12 C         140.8034  141.0853  168.6058 C.ar    1  UNL1        0.1061
     13 C         140.0138  140.8399  167.3543 C.ar    1  UNL1        0.0259
     14 C         140.5261  139.8820  166.3199 C.ar    1  UNL1        0.0887
     15 S         140.2910  142.0432  169.6402 S.O2    1  UNL1        0.0105
     16 C         139.7787  143.0011  170.6745 C.3     1  UNL1        0.1816
     17 O         140.1118  140.9074  170.6033 O.2     1  UNL1       -0.1686
     18 O         140.4703  143.1791  168.6770 O.2     1  UNL1       -0.1686
     19 O         142.3404  138.2116  165.5027 O.3     1  UNL1       -0.4702
     20 C         142.5430  138.4037  162.9196 C.3     1  UNL1        0.0566
     21 C         143.0570  138.7291  164.2908 C.3     1  UNL1        0.2599
     22 C         144.2876  139.5720  164.4499 C.3     1  UNL1        0.4340
     23 F         145.5181  140.4148  164.6091 F       1  UNL1       -0.1664
     24 F         143.7514  140.5452  163.4423 F       1  UNL1       -0.1664
     25 F         144.8238  138.5988  165.4575 F       1  UNL1       -0.1664
     26 C         140.3318  143.3254  160.3739 C.ar    1  UNL1        0.0868
     27 C         139.5200  143.0975  159.1332 C.ar    1  UNL1        0.1165
     28 N         139.6688  144.0196  157.9596 N.ar    1  UNL1       -0.2205
     29 C         140.6295  145.1698  158.0266 C.ar    1  UNL1        0.2352
     30 N         141.4412  145.3977  159.2672 N.ar    1  UNL1       -0.2205
     31 C         141.2924  144.4755  160.4408 C.ar    1  UNL1        0.1165
     32 C         140.7783  146.0920  156.8530 C.3     1  UNL1        0.4523
     33 F         140.9272  147.0142  155.6794 F       1  UNL1       -0.1632
     34 F         142.2294  146.2789  157.1839 F       1  UNL1       -0.1632
     35 F         139.3273  145.9051  156.5221 F       1  UNL1       -0.1632
@<TRIPOS>BOND
     1    20    21    1
     2    21    19    1
     3    19     9    1
     4     9    10   ar
     5    10    11   ar
     6    11    12   ar
     7    12    15    1
     8    15    16    1
     9    15    17    2
    10    15    18    2
    11    12    13   ar
    12    13    14   ar
    13    14     1    1
    14     1     2    2
    15     1     3   am
    16     3     4    1
    17     4     5    1
    18     5     6    1
    19     6    26    1
    20    26    27   ar
    21    27    28   ar
    22    28    29   ar
    23    29    32    1
    24    32    33    1
    25    32    34    1
    26    32    35    1
    27    29    30   ar
    28    30    31   ar
    29     6     7    1
    30     7     8    1
    31    21    22    1
    32    22    23    1
    33    22    24    1
    34    22    25    1
    35    14     9   ar
    36     8     3    1
    37    31    26   ar
@<TRIPOS>MOLECULE
*****
 35 37 0 0 0
SMALL
GASTEIGER

@<TRIPOS>ATOM
      1 C         139.7618  139.6163  165.1882 C.2     1  UNL1        0.2521
      2 O         138.8139  138.4561  165.1142 O.2     1  UNL1       -0.2698
      3 N         139.9371  140.5184  164.0026 N.am    1  UNL1       -0.2725
      4 C         140.8850  141.6786  164.0766 C.3     1  UNL1        0.1151
      5 C         141.0603  142.5807  162.8910 C.3     1  UNL1        0.1124
      6 N         140.2877  142.3224  161.6314 N.pl3   1  UNL1       -0.3016
      7 C         139.3399  141.1622  161.5574 C.3     1  UNL1        0.1124
      8 C         139.1646  140.2602  162.7430 C.3     1  UNL1        0.1151
      9 C         141.8596  139.2064  166.6651 C.ar    1  UNL1        0.1432
     10 C         142.6320  139.4646  167.9246 C.ar    1  UNL1        0.0384
     11 C         142.0793  140.3910  168.9669 C.ar    1  UNL1        0.0215
     12 C         140.7541  141.0592  168.7496 C.ar    1  UNL1        0.1061
     13 C         139.9816  140.8009  167.4900 C.ar    1  UNL1        0.0259
     14 C         140.5343  139.8745  166.4478 C.ar    1  UNL1        0.0887
     15 S         140.2013  141.9856  169.7918 S.O2    1  UNL1        0.0105
     16 C         139.6486  142.9120  170.8341 C.3     1  UNL1        0.1816
     17 O         140.4445  143.1536  168.8826 O.2     1  UNL1       -0.1686
     18 O         139.9582  140.8176  170.7010 O.2     1  UNL1       -0.1686
     19 O         142.4123  138.2800  165.6228 O.3     1  UNL1       -0.4702
     20 C         144.1362  139.9637  164.6517 C.3     1  UNL1        0.0566
     21 C         143.1697  138.8340  164.4527 C.3     1  UNL1        0.2599
     22 C         142.9606  138.2583  163.0834 C.3     1  UNL1        0.4340
     23 F         142.7516  137.6827  161.7141 F       1  UNL1       -0.1664
     24 F         141.6940  137.6052  163.5513 F       1  UNL1       -0.1664
     25 F         144.2272  138.9114  162.6154 F       1  UNL1       -0.1664
     26 C         140.4630  143.2245  160.4459 C.ar    1  UNL1        0.0868
     27 C         139.4654  143.1937  159.3260 C.ar    1  UNL1        0.1165
     28 N         139.6407  144.0958  158.1405 N.ar    1  UNL1       -0.2205
     29 C         140.8137  145.0285  158.0747 C.ar    1  UNL1        0.2352
     30 N         141.8112  145.0592  159.1945 N.ar    1  UNL1       -0.2205
     31 C         141.6359  144.1572  160.3800 C.ar    1  UNL1        0.1165
     32 C         140.9890  145.9306  156.8891 C.3     1  UNL1        0.4523
     33 F         141.1643  146.8326  155.7035 F       1  UNL1       -0.1632
     34 F         139.6432  145.5146  156.3736 F       1  UNL1       -0.1632
     35 F         142.3348  146.3466  157.4046 F       1  UNL1       -0.1632
@<TRIPOS>BOND
     1    20    21    1
     2    21    19    1
     3    19     9    1
     4     9    10   ar
     5    10    11   ar
     6    11    12   ar
     7    12    15    1
     8    15    16    1
     9    15    17    2
    10    15    18    2
    11    12    13   ar
    12    13    14   ar
    13    14     1    1
    14     1     2    2
    15     1     3   am
    16     3     4    1
    17     4     5    1
    18     5     6    1
    19     6    26    1
    20    26    27   ar
    21    27    28   ar
    22    28    29   ar
    23    29    32    1
    24    32    33    1
    25    32    34    1
    26    32    35    1
    27    29    30   ar
    28    30    31   ar
    29     6     7    1
    30     7     8    1
    31    21    22    1
    32    22    23    1
    33    22    24    1
    34    22    25    1
    35    14     9   ar
    36     8     3    1
    37    31    26   ar
@<TRIPOS>MOLECULE
*****
 35 37 0 0 0
SMALL
GASTEIGER

@<TRIPOS>ATOM
      1 C         143.2047  139.3402  166.1711 C.2     1  UNL1        0.2521
      2 O         143.9414  138.1307  166.6654 O.2     1  UNL1       -0.2698
      3 N         143.3570  139.7803  164.7452 N.am    1  UNL1       -0.2725
      4 C         142.6203  140.9899  164.2509 C.3     1  UNL1        0.1151
      5 C         142.7725  141.4301  162.8251 C.3     1  UNL1        0.1124
      6 N         143.6615  140.6606  161.8935 N.pl3   1  UNL1       -0.3016
      7 C         144.3982  139.4511  162.3878 C.3     1  UNL1        0.1124
      8 C         144.2459  139.0110  163.8137 C.3     1  UNL1        0.1151
      9 C         140.8273  139.9380  167.0316 C.ar    1  UNL1        0.1432
     10 C         139.9384  140.7074  167.9632 C.ar    1  UNL1        0.0384
     11 C         140.5379  141.6484  168.9657 C.ar    1  UNL1        0.0215
     12 C         142.0263  141.8200  169.0367 C.ar    1  UNL1        0.1061
     13 C         142.9152  141.0506  168.1052 C.ar    1  UNL1        0.0259
     14 C         142.3157  140.1096  167.1027 C.ar    1  UNL1        0.0887
     15 S         142.6258  142.7610  170.0393 S.O2    1  UNL1        0.0105
     16 C         143.2253  143.7020  171.0418 C.3     1  UNL1        0.1816
     17 O         143.9354  142.7036  169.3101 O.2     1  UNL1       -0.1686
     18 O         141.3163  142.8184  170.7685 O.2     1  UNL1       -0.1686
     19 O         140.2278  138.9970  166.0291 O.3     1  UNL1       -0.4702
     20 C         138.0556  139.9768  164.9938 C.3     1  UNL1        0.0566
     21 C         138.7402  138.9473  165.8432 C.3     1  UNL1        0.2599
     22 C         137.9371  137.8679  166.5067 C.3     1  UNL1        0.4340
     23 F         137.1340  136.7887  167.1702 F       1  UNL1       -0.1664
     24 F         138.5793  136.8440  165.6185 F       1  UNL1       -0.1664
     25 F         137.2949  138.8919  167.3950 F       1  UNL1       -0.1664
     26 C         143.8138  141.1008  160.4676 C.ar    1  UNL1        0.0868
     27 C         144.0323  142.5503  160.1494 C.ar    1  UNL1        0.1165
     28 N         144.1846  142.9905  158.7236 N.ar    1  UNL1       -0.2205
     29 C         144.1184  141.9811  157.6159 C.ar    1  UNL1        0.2352
     30 N         143.8999  140.5316  157.9342 N.ar    1  UNL1       -0.2205
     31 C         143.7476  140.0915  159.3600 C.ar    1  UNL1        0.1165
     32 C         144.2706  142.4212  156.1900 C.3     1  UNL1        0.4523
     33 F         144.4229  142.8613  154.7642 F       1  UNL1       -0.1632
     34 F         142.7857  142.3246  156.0016 F       1  UNL1       -0.1632
     35 F         145.7556  142.5178  156.3785 F       1  UNL1       -0.1632
@<TRIPOS>BOND
     1    20    21    1
     2    21    19    1
     3    19     9    1
     4     9    10   ar
     5    10    11   ar
     6    11    12   ar
     7    12    15    1
     8    15    16    1
     9    15    17    2
    10    15    18    2
    11    12    13   ar
    12    13    14   ar
    13    14     1    1
    14     1     2    2
    15     1     3   am
    16     3     4    1
    17     4     5    1
    18     5     6    1
    19     6    26    1
    20    26    27   ar
    21    27    28   ar
    22    28    29   ar
    23    29    32    1
    24    32    33    1
    25    32    34    1
    26    32    35    1
    27    29    30   ar
    28    30    31   ar
    29     6     7    1
    30     7     8    1
    31    21    22    1
    32    22    23    1
    33    22    24    1
    34    22    25    1
    35    14     9   ar
    36     8     3    1
    37    31    26   ar
@<TRIPOS>MOLECULE
*****
 35 37 0 0 0
SMALL
GASTEIGER

@<TRIPOS>ATOM
      1 C         139.2921  140.1583  164.4396 C.2     1  UNL1        0.2521
      2 O         137.8440  140.0754  164.8218 O.2     1  UNL1       -0.2698
      3 N         139.7452  139.6510  163.1027 N.am    1  UNL1       -0.2725
      4 C         141.1934  139.7340  162.7205 C.3     1  UNL1        0.1151
      5 C         141.6465  139.2267  161.3836 C.3     1  UNL1        0.1124
      6 N         140.6515  138.6364  160.4289 N.pl3   1  UNL1       -0.3016
      7 C         139.2034  138.5534  160.8111 C.3     1  UNL1        0.1124
      8 C         138.7503  139.0607  162.1480 C.3     1  UNL1        0.1151
      9 C         140.8488  142.1164  165.1416 C.ar    1  UNL1        0.1432
     10 C         141.8438  142.7066  166.0963 C.ar    1  UNL1        0.0384
     11 C         142.2772  141.9292  167.3038 C.ar    1  UNL1        0.0215
     12 C         141.7155  140.5615  167.5565 C.ar    1  UNL1        0.1061
     13 C         140.7205  139.9713  166.6017 C.ar    1  UNL1        0.0259
     14 C         140.2872  140.7487  165.3943 C.ar    1  UNL1        0.0887
     15 S         142.1488  139.7841  168.7639 S.O2    1  UNL1        0.0105
     16 C         142.5821  139.0067  169.9713 C.3     1  UNL1        0.1816
     17 O         141.1748  140.5518  169.6077 O.2     1  UNL1       -0.1686
     18 O         143.1228  139.0164  167.9200 O.2     1  UNL1       -0.1686
     19 O         140.4155  142.8938  163.9342 O.3     1  UNL1       -0.4702
     20 C         138.0981  143.2239  162.8071 C.3     1  UNL1        0.0566
     21 C         139.0653  143.5465  163.9073 C.3     1  UNL1        0.2599
     22 C         138.6821  144.5218  164.9807 C.3     1  UNL1        0.4340
     23 F         138.2990  145.4971  166.0540 F       1  UNL1       -0.1664
     24 F         140.0176  145.1919  164.8485 F       1  UNL1       -0.1664
     25 F         137.3467  143.8517  165.1128 F       1  UNL1       -0.1664
     26 C         141.1046  138.1290  159.0920 C.ar    1  UNL1        0.0868
     27 C         140.1270  138.0237  157.9591 C.ar    1  UNL1        0.1165
     28 N         140.5801  137.5164  156.6222 N.ar    1  UNL1       -0.2205
     29 C         142.0109  137.1144  156.4182 C.ar    1  UNL1        0.2352
     30 N         142.9883  137.2197  157.5510 N.ar    1  UNL1       -0.2205
     31 C         142.5352  137.7270  158.8879 C.ar    1  UNL1        0.1165
     32 C         142.4640  136.6070  155.0813 C.3     1  UNL1        0.4523
     33 F         142.9171  136.0997  153.7444 F       1  UNL1       -0.1632
     34 F         141.0356  136.5115  154.6334 F       1  UNL1       -0.1632
     35 F         143.8924  136.7025  155.5292 F       1  UNL1       -0.1632
@<TRIPOS>BOND
     1    20    21    1
     2    21    19    1
     3    19     9    1
     4     9    10   ar
     5    10    11   ar
     6    11    12   ar
     7    12    15    1
     8    15    16    1
     9    15    17    2
    10    15    18    2
    11    12    13   ar
    12    13    14   ar
    13    14     1    1
    14     1     2    2
    15     1     3   am
    16     3     4    1
    17     4     5    1
    18     5     6    1
    19     6    26    1
    20    26    27   ar
    21    27    28   ar
    22    28    29   ar
    23    29    32    1
    24    32    33    1
    25    32    34    1
    26    32    35    1
    27    29    30   ar
    28    30    31   ar
    29     6     7    1
    30     7     8    1
    31    21    22    1
    32    22    23    1
    33    22    24    1
    34    22    25    1
    35    14     9   ar
    36     8     3    1
    37    31    26   ar
@<TRIPOS>MOLECULE
*****
 35 37 0 0 0
SMALL
GASTEIGER

@<TRIPOS>ATOM
      1 C         140.1005  142.7892  164.6252 C.2     1  UNL1        0.2521
      2 O         139.2286  144.0075  164.7004 O.2     1  UNL1       -0.2698
      3 N         140.9038  142.5170  163.3880 N.am    1  UNL1       -0.2725
      4 C         141.7757  141.2987  163.3129 C.3     1  UNL1        0.1151
      5 C         142.5791  141.0265  162.0758 C.3     1  UNL1        0.1124
      6 N         142.5105  141.9726  160.9137 N.pl3   1  UNL1       -0.3016
      7 C         141.6386  143.1909  160.9889 C.3     1  UNL1        0.1124
      8 C         140.8353  143.4631  162.2261 C.3     1  UNL1        0.1151
      9 C         139.1918  140.7099  165.8904 C.ar    1  UNL1        0.1432
     10 C         139.2604  139.7638  167.0524 C.ar    1  UNL1        0.0384
     11 C         140.3063  139.9510  168.1112 C.ar    1  UNL1        0.0215
     12 C         141.2835  141.0842  168.0080 C.ar    1  UNL1        0.1061
     13 C         141.2149  142.0303  166.8461 C.ar    1  UNL1        0.0259
     14 C         140.1691  141.8431  165.7872 C.ar    1  UNL1        0.0887
     15 S         142.3294  141.2714  169.0669 S.O2    1  UNL1        0.0105
     16 C         143.3753  141.4586  170.1257 C.3     1  UNL1        0.1816
     17 O         142.9861  139.9906  168.6446 O.2     1  UNL1       -0.1686
     18 O         141.6727  142.5522  169.4891 O.2     1  UNL1       -0.1686
     19 O         138.1459  140.5227  164.8316 O.3     1  UNL1       -0.4702
     20 C         139.3699  138.4926  163.7684 C.3     1  UNL1        0.0566
     21 C         138.4302  139.6549  163.6416 C.3     1  UNL1        0.2599
     22 C         137.7749  139.9493  162.3248 C.3     1  UNL1        0.4340
     23 F         137.1196  140.2437  161.0081 F       1  UNL1       -0.1664
     24 F         137.9261  141.4200  162.5784 F       1  UNL1       -0.1664
     25 F         137.6236  138.4787  162.0713 F       1  UNL1       -0.1664
     26 C         143.3138  141.7004  159.6766 C.ar    1  UNL1        0.0868
     27 C         143.8729  142.8414  158.8792 C.ar    1  UNL1        0.1165
     28 N         144.6762  142.5692  157.6420 N.ar    1  UNL1       -0.2205
     29 C         144.9205  141.1560  157.2023 C.ar    1  UNL1        0.2352
     30 N         144.3615  140.0151  157.9996 N.ar    1  UNL1       -0.2205
     31 C         143.5581  140.2873  159.2368 C.ar    1  UNL1        0.1165
     32 C         145.7238  140.8838  155.9651 C.3     1  UNL1        0.4523
     33 F         146.5272  140.6116  154.7279 F       1  UNL1       -0.1632
     34 F         146.3240  142.2557  156.0529 F       1  UNL1       -0.1632
     35 F         145.1237  139.5119  155.8773 F       1  UNL1       -0.1632
@<TRIPOS>BOND
     1    20    21    1
     2    21    19    1
     3    19     9    1
     4     9    10   ar
     5    10    11   ar
     6    11    12   ar
     7    12    15    1
     8    15    16    1
     9    15    17    2
    10    15    18    2
    11    12    13   ar
    12    13    14   ar
    13    14     1    1
    14     1     2    2
    15     1     3   am
    16     3     4    1
    17     4     5    1
    18     5     6    1
    19     6    26    1
    20    26    27   ar
    21    27    28   ar
    22    28    29   ar
    23    29    32    1
    24    32    33    1
    25    32    34    1
    26    32    35    1
    27    29    30   ar
    28    30    31   ar
    29     6     7    1
    30     7     8    1
    31    21    22    1
    32    22    23    1
    33    22    24    1
    34    22    25    1
    35    14     9   ar
    36     8     3    1
    37    31    26   ar
@<TRIPOS>MOLECULE
*****
 35 37 0 0 0
SMALL
GASTEIGER

@<TRIPOS>ATOM
      1 C         142.5724  139.7893  162.7609 C.2     1  UNL1        0.2521
      2 O         143.4481  138.6397  162.3589 O.2     1  UNL1       -0.2698
      3 N         142.1248  140.7863  161.7335 N.am    1  UNL1       -0.2725
      4 C         141.2490  141.9359  162.1356 C.3     1  UNL1        0.1151
      5 C         140.8015  142.9329  161.1081 C.3     1  UNL1        0.1124
      6 N         141.2296  142.7804  159.6786 N.pl3   1  UNL1       -0.3016
      7 C         142.1053  141.6308  159.2766 C.3     1  UNL1        0.1124
      8 C         142.5529  140.6338  160.3040 C.3     1  UNL1        0.1151
      9 C         143.0583  140.5998  165.1810 C.ar    1  UNL1        0.1432
     10 C         142.6302  140.7524  166.6104 C.ar    1  UNL1        0.0384
     11 C         141.2878  140.2469  167.0493 C.ar    1  UNL1        0.0215
     12 C         140.3737  139.5888  166.0587 C.ar    1  UNL1        0.1061
     13 C         140.8019  139.4363  164.6293 C.ar    1  UNL1        0.0259
     14 C         142.1442  139.9418  164.1904 C.ar    1  UNL1        0.0887
     15 S         139.0313  139.0833  166.4976 S.O2    1  UNL1        0.0105
     16 C         137.6890  138.5778  166.9365 C.3     1  UNL1        0.1816
     17 O         138.8624  138.3877  165.1794 O.2     1  UNL1       -0.1686
     18 O         139.2003  139.7790  167.8157 O.2     1  UNL1       -0.1686
     19 O         144.4007  141.1053  164.7421 O.3     1  UNL1       -0.4702
     20 C         144.5796  143.6226  165.3596 C.3     1  UNL1        0.0566
     21 C         144.5632  142.5369  164.3247 C.3     1  UNL1        0.2599
     22 C         144.7093  142.8827  162.8724 C.3     1  UNL1        0.4340
     23 F         144.8554  143.2286  161.4202 F       1  UNL1       -0.1664
     24 F         145.3849  141.5662  162.6268 F       1  UNL1       -0.1664
     25 F         144.0338  144.1993  163.1180 F       1  UNL1       -0.1664
     26 C         140.7820  143.7774  158.6512 C.ar    1  UNL1        0.0868
     27 C         140.4743  145.1878  159.0590 C.ar    1  UNL1        0.1165
     28 N         140.0267  146.1848  158.0315 N.ar    1  UNL1       -0.2205
     29 C         139.8869  145.7714  156.5963 C.ar    1  UNL1        0.2352
     30 N         140.1947  144.3611  156.1886 N.ar    1  UNL1       -0.2205
     31 C         140.6422  143.3641  157.2161 C.ar    1  UNL1        0.1165
     32 C         139.4393  146.7685  155.5689 C.3     1  UNL1        0.4523
     33 F         138.9917  147.7655  154.5415 F       1  UNL1       -0.1632
     34 F         139.8144  145.8113  154.4766 F       1  UNL1       -0.1632
     35 F         139.0642  147.7257  156.6612 F       1  UNL1       -0.1632
@<TRIPOS>BOND
     1    20    21    1
     2    21    19    1
     3    19     9    1
     4     9    10   ar
     5    10    11   ar
     6    11    12   ar
     7    12    15    1
     8    15    16    1
     9    15    17    2
    10    15    18    2
    11    12    13   ar
    12    13    14   ar
    13    14     1    1
    14     1     2    2
    15     1     3   am
    16     3     4    1
    17     4     5    1
    18     5     6    1
    19     6    26    1
    20    26    27   ar
    21    27    28   ar
    22    28    29   ar
    23    29    32    1
    24    32    33    1
    25    32    34    1
    26    32    35    1
    27    29    30   ar
    28    30    31   ar
    29     6     7    1
    30     7     8    1
    31    21    22    1
    32    22    23    1
    33    22    24    1
    34    22    25    1
    35    14     9   ar
    36     8     3    1
    37    31    26   ar
@<TRIPOS>MOLECULE
*****
 35 37 0 0 0
SMALL
GASTEIGER

@<TRIPOS>ATOM
      1 C         140.3919  140.1111  163.8815 C.2     1  UNL1        0.2521
      2 O         139.1634  139.2593  163.7584 O.2     1  UNL1       -0.2698
      3 N         141.2691  140.3393  162.6863 N.am    1  UNL1       -0.2725
      4 C         142.4977  141.1912  162.8094 C.3     1  UNL1        0.1151
      5 C         143.3748  141.4194  161.6142 C.3     1  UNL1        0.1124
      6 N         143.0235  140.7958  160.2960 N.pl3   1  UNL1       -0.3016
      7 C         141.7950  139.9441  160.1729 C.3     1  UNL1        0.1124
      8 C         140.9178  139.7158  161.3681 C.3     1  UNL1        0.1151
      9 C         140.6151  142.2175  165.3859 C.ar    1  UNL1        0.1432
     10 C         140.9664  142.8410  166.7041 C.ar    1  UNL1        0.0384
     11 C         141.4460  141.9817  167.8362 C.ar    1  UNL1        0.0215
     12 C         141.5742  140.4988  167.6500 C.ar    1  UNL1        0.1061
     13 C         141.2228  139.8753  166.3318 C.ar    1  UNL1        0.0259
     14 C         140.7433  140.7347  165.1997 C.ar    1  UNL1        0.0887
     15 S         142.0538  139.6395  168.7821 S.O2    1  UNL1        0.0105
     16 C         142.5333  138.7802  169.9142 C.3     1  UNL1        0.1816
     17 O         143.1505  139.1034  167.9105 O.2     1  UNL1       -0.1686
     18 O         140.9570  140.1757  169.6537 O.2     1  UNL1       -0.1686
     19 O         140.1355  143.0768  164.2538 O.3     1  UNL1       -0.4702
     20 C         137.7721  142.9297  163.1850 C.3     1  UNL1        0.0566
     21 C         138.7032  143.5192  164.2026 C.3     1  UNL1        0.2599
     22 C         138.2019  144.5511  165.1691 C.3     1  UNL1        0.4340
     23 F         137.7006  145.5830  166.1354 F       1  UNL1       -0.1664
     24 F         139.4854  145.3131  165.0213 F       1  UNL1       -0.1664
     25 F         136.9184  143.7891  165.3168 F       1  UNL1       -0.1664
     26 C         143.9007  141.0241  159.1008 C.ar    1  UNL1        0.0868
     27 C         144.6352  142.3229  158.9467 C.ar    1  UNL1        0.1165
     28 N         145.5124  142.5512  157.7515 N.ar    1  UNL1       -0.2205
     29 C         145.6550  141.4806  156.7104 C.ar    1  UNL1        0.2352
     30 N         144.9205  140.1819  156.8646 N.ar    1  UNL1       -0.2205
     31 C         144.0433  139.9537  158.0598 C.ar    1  UNL1        0.1165
     32 C         146.5322  141.7089  155.5153 C.3     1  UNL1        0.4523
     33 F         147.4094  141.9372  154.3201 F       1  UNL1       -0.1632
     34 F         147.6990  141.9693  156.4213 F       1  UNL1       -0.1632
     35 F         145.3655  141.4485  154.6092 F       1  UNL1       -0.1632
@<TRIPOS>BOND
     1    20    21    1
     2    21    19    1
     3    19     9    1
     4     9    10   ar
     5    10    11   ar
     6    11    12   ar
     7    12    15    1
     8    15    16    1
     9    15    17    2
    10    15    18    2
    11    12    13   ar
    12    13    14   ar
    13    14     1    1
    14     1     2    2
    15     1     3   am
    16     3     4    1
    17     4     5    1
    18     5     6    1
    19     6    26    1
    20    26    27   ar
    21    27    28   ar
    22    28    29   ar
    23    29    32    1
    24    32    33    1
    25    32    34    1
    26    32    35    1
    27    29    30   ar
    28    30    31   ar
    29     6     7    1
    30     7     8    1
    31    21    22    1
    32    22    23    1
    33    22    24    1
    34    22    25    1
    35    14     9   ar
    36     8     3    1
    37    31    26   ar
