@<TRIPOS>MOLECULE
*****
 29 31 0 0 0
SMALL
GASTEIGER

@<TRIPOS>ATOM
      1 N         141.1480  144.7514  159.9553 N.pl3   1  UNL1       -0.3040
      2 C         141.9901  143.8187  160.7744 C.3     1  UNL1        0.1123
      3 C         141.7212  143.6582  162.2414 C.3     1  UNL1        0.1149
      4 N         140.6102  144.4304  162.8892 N.am    1  UNL1       -0.2744
      5 C         140.3413  144.2699  164.3561 C.2     1  UNL1        0.2506
      6 O         139.2304  145.0420  165.0038 O.2     1  UNL1       -0.2727
      7 C         139.7682  145.3631  162.0700 C.3     1  UNL1        0.1149
      8 C         140.0371  145.5236  160.6030 C.3     1  UNL1        0.1123
      9 C         140.9320  146.0987  156.2285 C.ar    1  UNL1        0.1504
     10 C         140.6631  145.9381  157.6954 C.ar    1  UNL1        0.0523
     11 C         141.4170  144.9119  158.4883 C.ar    1  UNL1        0.0510
     12 C         142.4398  144.0463  157.8142 C.ar    1  UNL1        0.0156
     13 C         142.7087  144.2068  156.3473 C.ar    1  UNL1        0.0157
     14 C         141.9548  145.2330  155.5544 C.ar    1  UNL1        0.0916
     15 CL        142.2237  145.3935  154.0875 Cl      1  UNL1       -0.0791
     16 C         138.7090  146.9502  155.1877 C.3     1  UNL1        0.2525
     17 O         140.1780  147.1248  155.4357 O.3     1  UNL1       -0.4705
     18 C         141.1833  143.3372  165.1753 C.3     1  UNL1        0.2116
     19 N         140.5648  142.1225  165.8014 N.ar    1  UNL1       -0.2447
     20 N         140.0739  140.9075  165.0716 N.ar    1  UNL1       -0.1642
     21 C         139.5342  139.9437  166.0864 C.ar    1  UNL1        0.1837
     22 C         139.6917  140.5631  167.4435 C.ar    1  UNL1        0.0941
     23 CL        139.2838  139.9445  168.7477 Cl      1  UNL1       -0.0795
     24 C         140.3286  141.9097  167.2673 C.ar    1  UNL1        0.0685
     25 C         140.6695  142.8740  168.3645 C.3     1  UNL1        0.0527
     26 C         138.9413  138.5970  165.7953 C.3     1  UNL1        0.4373
     27 F         138.3483  137.2503  165.5042 F       1  UNL1       -0.1643
     28 F         140.2990  138.0799  165.4219 F       1  UNL1       -0.1643
     29 F         137.5836  139.1141  166.1686 F       1  UNL1       -0.1643
@<TRIPOS>BOND
     1    16    17    1
     2    17     9    1
     3     9    10   ar
     4    10    11   ar
     5    11     1    1
     6     1     2    1
     7     2     3    1
     8     3     4    1
     9     4     5   am
    10     5     6    2
    11     5    18    1
    12    18    19    1
    13    19    20   ar
    14    20    21   ar
    15    21    26    1
    16    26    27    1
    17    26    28    1
    18    26    29    1
    19    21    22   ar
    20    22    23    1
    21    22    24   ar
    22    24    25    1
    23     4     7    1
    24     7     8    1
    25    11    12   ar
    26    12    13   ar
    27    13    14   ar
    28    14    15    1
    29    14     9   ar
    30     8     1    1
    31    24    19   ar
@<TRIPOS>MOLECULE
*****
 29 31 0 0 0
SMALL
GASTEIGER

@<TRIPOS>ATOM
      1 N         140.1233  142.9666  165.2567 N.pl3   1  UNL1       -0.3040
      2 C         141.0165  142.5606  164.1222 C.3     1  UNL1        0.1123
      3 C         141.0021  143.3395  162.8404 C.3     1  UNL1        0.1149
      4 N         140.0942  144.5246  162.6931 N.am    1  UNL1       -0.2744
      5 C         140.0798  145.3035  161.4113 C.2     1  UNL1        0.2506
      6 O         139.1720  146.4885  161.2641 O.2     1  UNL1       -0.2727
      7 C         139.2009  144.9306  163.8276 C.3     1  UNL1        0.1149
      8 C         139.2155  144.1516  165.1095 C.3     1  UNL1        0.1123
      9 C         140.6986  142.0320  169.0706 C.ar    1  UNL1        0.1504
     10 C         140.6840  142.8109  167.7888 C.ar    1  UNL1        0.0523
     11 C         140.1378  142.1876  166.5386 C.ar    1  UNL1        0.0510
     12 C         139.6060  140.7854  166.5701 C.ar    1  UNL1        0.0156
     13 C         139.6206  140.0065  167.8519 C.ar    1  UNL1        0.0157
     14 C         140.1669  140.6298  169.1021 C.ar    1  UNL1        0.0916
     15 CL        140.1814  139.8507  170.3839 Cl      1  UNL1       -0.0791
     16 C         142.7174  142.9097  170.4504 C.3     1  UNL1        0.2525
     17 O         141.2449  142.6552  170.3208 O.3     1  UNL1       -0.4705
     18 C         140.9731  144.8975  160.2768 C.3     1  UNL1        0.2116
     19 N         140.4654  144.9509  158.8664 N.ar    1  UNL1       -0.2447
     20 N         140.5374  146.1345  157.9477 N.ar    1  UNL1       -0.1642
     21 C         139.9131  145.7452  156.6405 C.ar    1  UNL1        0.1837
     22 C         139.4553  144.3211  156.7513 C.ar    1  UNL1        0.0941
     23 CL        138.7755  143.5272  155.6753 Cl      1  UNL1       -0.0795
     24 C         139.7966  143.8302  158.1270 C.ar    1  UNL1        0.0685
     25 C         139.5181  142.4592  158.6682 C.3     1  UNL1        0.0527
     26 C         139.7714  146.6256  155.4343 C.3     1  UNL1        0.4373
     27 F         139.6298  147.5059  154.2280 F       1  UNL1       -0.1643
     28 F         138.5639  147.2708  156.0470 F       1  UNL1       -0.1643
     29 F         140.9790  145.9803  154.8216 F       1  UNL1       -0.1643
@<TRIPOS>BOND
     1    16    17    1
     2    17     9    1
     3     9    10   ar
     4    10    11   ar
     5    11     1    1
     6     1     2    1
     7     2     3    1
     8     3     4    1
     9     4     5   am
    10     5     6    2
    11     5    18    1
    12    18    19    1
    13    19    20   ar
    14    20    21   ar
    15    21    26    1
    16    26    27    1
    17    26    28    1
    18    26    29    1
    19    21    22   ar
    20    22    23    1
    21    22    24   ar
    22    24    25    1
    23     4     7    1
    24     7     8    1
    25    11    12   ar
    26    12    13   ar
    27    13    14   ar
    28    14    15    1
    29    14     9   ar
    30     8     1    1
    31    24    19   ar
@<TRIPOS>MOLECULE
*****
 29 31 0 0 0
SMALL
GASTEIGER

@<TRIPOS>ATOM
      1 N         140.5517  142.9078  165.0182 N.pl3   1  UNL1       -0.3040
      2 C         141.4446  142.6193  163.8479 C.3     1  UNL1        0.1123
      3 C         141.3393  143.4478  162.6020 C.3     1  UNL1        0.1149
      4 N         140.3410  144.5649  162.5263 N.am    1  UNL1       -0.2744
      5 C         140.2357  145.3935  161.2804 C.2     1  UNL1        0.2506
      6 O         139.2375  146.5105  161.2047 O.2     1  UNL1       -0.2727
      7 C         139.4481  144.8534  163.6966 C.3     1  UNL1        0.1149
      8 C         139.5535  144.0248  164.9426 C.3     1  UNL1        0.1123
      9 C         139.7160  140.2205  167.8164 C.ar    1  UNL1        0.1504
     10 C         139.6107  141.0491  166.5706 C.ar    1  UNL1        0.0523
     11 C         140.6571  142.0792  166.2642 C.ar    1  UNL1        0.0510
     12 C         141.8089  142.2807  167.2037 C.ar    1  UNL1        0.0156
     13 C         141.9142  141.4521  168.4496 C.ar    1  UNL1        0.0157
     14 C         140.8678  140.4220  168.7560 C.ar    1  UNL1        0.0916
     15 CL        140.9731  139.5934  170.0020 Cl      1  UNL1       -0.0791
     16 C         137.7746  138.6828  167.0314 C.3     1  UNL1        0.2525
     17 O         138.6695  139.1904  168.1228 O.3     1  UNL1       -0.4705
     18 C         141.1286  145.1050  160.1101 C.3     1  UNL1        0.2116
     19 N         140.5693  145.1201  158.7184 N.ar    1  UNL1       -0.2447
     20 N         140.7036  146.2372  157.7264 N.ar    1  UNL1       -0.1642
     21 C         139.9949  145.8283  156.4692 C.ar    1  UNL1        0.1837
     22 C         139.4225  144.4585  156.6842 C.ar    1  UNL1        0.0941
     23 CL        138.6337  143.6657  155.6846 Cl      1  UNL1       -0.0795
     24 C         139.7776  144.0209  158.0743 C.ar    1  UNL1        0.0685
     25 C         139.4061  142.7135  158.7089 C.3     1  UNL1        0.0527
     26 C         139.8788  146.6457  155.2168 C.3     1  UNL1        0.4373
     27 F         139.7628  147.4631  153.9644 F       1  UNL1       -0.1643
     28 F         141.2277  146.1604  154.7750 F       1  UNL1       -0.1643
     29 F         138.5300  147.1311  155.6585 F       1  UNL1       -0.1643
@<TRIPOS>BOND
     1    16    17    1
     2    17     9    1
     3     9    10   ar
     4    10    11   ar
     5    11     1    1
     6     1     2    1
     7     2     3    1
     8     3     4    1
     9     4     5   am
    10     5     6    2
    11     5    18    1
    12    18    19    1
    13    19    20   ar
    14    20    21   ar
    15    21    26    1
    16    26    27    1
    17    26    28    1
    18    26    29    1
    19    21    22   ar
    20    22    23    1
    21    22    24   ar
    22    24    25    1
    23     4     7    1
    24     7     8    1
    25    11    12   ar
    26    12    13   ar
    27    13    14   ar
    28    14    15    1
    29    14     9   ar
    30     8     1    1
    31    24    19   ar
@<TRIPOS>MOLECULE
*****
 29 31 0 0 0
SMALL
GASTEIGER

@<TRIPOS>ATOM
      1 N         140.1151  142.9952  165.2709 N.pl3   1  UNL1       -0.3040
      2 C         140.9756  142.5707  164.1179 C.3     1  UNL1        0.1123
      3 C         140.9565  143.3546  162.8393 C.3     1  UNL1        0.1149
      4 N         140.0769  144.5632  162.7136 N.am    1  UNL1       -0.2744
      5 C         140.0578  145.3472  161.4349 C.2     1  UNL1        0.2506
      6 O         139.1783  146.5557  161.3093 O.2     1  UNL1       -0.2727
      7 C         139.2164  144.9877  163.8665 C.3     1  UNL1        0.1149
      8 C         139.2356  144.2037  165.1452 C.3     1  UNL1        0.1123
      9 C         140.6887  142.0513  169.0828 C.ar    1  UNL1        0.1504
     10 C         140.6695  142.8353  167.8041 C.ar    1  UNL1        0.0523
     11 C         140.1342  142.2111  166.5496 C.ar    1  UNL1        0.0510
     12 C         139.6181  140.8030  166.5737 C.ar    1  UNL1        0.0156
     13 C         139.6372  140.0190  167.8523 C.ar    1  UNL1        0.0157
     14 C         140.1725  140.6432  169.1069 C.ar    1  UNL1        0.0916
     15 CL        140.1916  139.8591  170.3856 Cl      1  UNL1       -0.0791
     16 C         142.7011  142.8762  170.5039 C.3     1  UNL1        0.2525
     17 O         141.2239  142.6755  170.3373 O.3     1  UNL1       -0.4705
     18 C         140.9183  144.9227  160.2820 C.3     1  UNL1        0.2116
     19 N         140.3237  144.1348  159.1525 N.ar    1  UNL1       -0.2447
     20 N         139.0302  143.3763  159.1917 N.ar    1  UNL1       -0.1642
     21 C         138.8253  142.7398  157.8490 C.ar    1  UNL1        0.1837
     22 C         139.9921  143.1050  156.9799 C.ar    1  UNL1        0.0941
     23 CL        140.1969  142.6822  155.5554 Cl      1  UNL1       -0.0795
     24 C         140.9182  143.9671  157.7856 C.ar    1  UNL1        0.0685
     25 C         142.2116  144.5578  157.3081 C.3     1  UNL1        0.0527
     26 C         137.6583  141.8878  157.4461 C.3     1  UNL1        0.4373
     27 F         136.4914  141.0357  157.0431 F       1  UNL1       -0.1643
     28 F         137.0187  143.0747  156.7887 F       1  UNL1       -0.1643
     29 F         138.2980  140.7009  158.1035 F       1  UNL1       -0.1643
@<TRIPOS>BOND
     1    16    17    1
     2    17     9    1
     3     9    10   ar
     4    10    11   ar
     5    11     1    1
     6     1     2    1
     7     2     3    1
     8     3     4    1
     9     4     5   am
    10     5     6    2
    11     5    18    1
    12    18    19    1
    13    19    20   ar
    14    20    21   ar
    15    21    26    1
    16    26    27    1
    17    26    28    1
    18    26    29    1
    19    21    22   ar
    20    22    23    1
    21    22    24   ar
    22    24    25    1
    23     4     7    1
    24     7     8    1
    25    11    12   ar
    26    12    13   ar
    27    13    14   ar
    28    14    15    1
    29    14     9   ar
    30     8     1    1
    31    24    19   ar
@<TRIPOS>MOLECULE
*****
 29 31 0 0 0
SMALL
GASTEIGER

@<TRIPOS>ATOM
      1 N         140.0356  138.9975  158.3746 N.pl3   1  UNL1       -0.3040
      2 C         140.9057  139.1560  159.5861 C.3     1  UNL1        0.1123
      3 C         140.5476  140.1612  160.6403 C.3     1  UNL1        0.1149
      4 N         139.3194  141.0079  160.4830 N.am    1  UNL1       -0.2744
      5 C         138.9614  142.0130  161.5372 C.2     1  UNL1        0.2506
      6 O         137.7332  142.8597  161.3799 O.2     1  UNL1       -0.2727
      7 C         138.4493  140.8494  159.2715 C.3     1  UNL1        0.1149
      8 C         138.8074  139.8441  158.2173 C.3     1  UNL1        0.1123
      9 C         142.0496  136.2398  156.3524 C.ar    1  UNL1        0.1504
     10 C         141.6914  137.2449  157.4066 C.ar    1  UNL1        0.0523
     11 C         140.3937  137.9923  157.3203 C.ar    1  UNL1        0.0510
     12 C         139.4541  137.7344  156.1799 C.ar    1  UNL1        0.0156
     13 C         139.8123  136.7292  155.1257 C.ar    1  UNL1        0.0157
     14 C         141.1100  135.9819  155.2120 C.ar    1  UNL1        0.0916
     15 CL        141.4681  134.9767  154.1578 Cl      1  UNL1       -0.0791
     16 C         143.4950  134.3552  157.4056 C.3     1  UNL1        0.2525
     17 O         143.3473  135.4924  156.4387 O.3     1  UNL1       -0.4705
     18 C         139.8315  142.1715  162.7488 C.3     1  UNL1        0.2116
     19 N         139.5874  141.3258  163.9633 N.ar    1  UNL1       -0.2447
     20 N         138.9827  139.9532  163.9748 N.ar    1  UNL1       -0.1642
     21 C         138.9267  139.4832  165.3981 C.ar    1  UNL1        0.1837
     22 C         139.4969  140.5654  166.2664 C.ar    1  UNL1        0.0941
     23 CL        139.6346  140.5172  167.7593 Cl      1  UNL1       -0.0795
     24 C         139.9052  141.7042  165.3796 C.ar    1  UNL1        0.0685
     25 C         140.5229  142.9947  165.8300 C.3     1  UNL1        0.0527
     26 C         138.3941  138.1628  165.8704 C.3     1  UNL1        0.4373
     27 F         137.8615  136.8425  166.3427 F       1  UNL1       -0.1643
     28 F         139.4514  137.4529  165.0778 F       1  UNL1       -0.1643
     29 F         137.3369  138.8728  166.6630 F       1  UNL1       -0.1643
@<TRIPOS>BOND
     1    16    17    1
     2    17     9    1
     3     9    10   ar
     4    10    11   ar
     5    11     1    1
     6     1     2    1
     7     2     3    1
     8     3     4    1
     9     4     5   am
    10     5     6    2
    11     5    18    1
    12    18    19    1
    13    19    20   ar
    14    20    21   ar
    15    21    26    1
    16    26    27    1
    17    26    28    1
    18    26    29    1
    19    21    22   ar
    20    22    23    1
    21    22    24   ar
    22    24    25    1
    23     4     7    1
    24     7     8    1
    25    11    12   ar
    26    12    13   ar
    27    13    14   ar
    28    14    15    1
    29    14     9   ar
    30     8     1    1
    31    24    19   ar
@<TRIPOS>MOLECULE
*****
 29 31 0 0 0
SMALL
GASTEIGER

@<TRIPOS>ATOM
      1 N         140.0826  138.5425  161.1259 N.pl3   1  UNL1       -0.3040
      2 C         141.4447  137.9636  160.8824 C.3     1  UNL1        0.1123
      3 C         141.9510  137.8014  159.4798 C.3     1  UNL1        0.1149
      4 N         141.0950  138.2182  158.3206 N.am    1  UNL1       -0.2744
      5 C         141.6012  138.0560  156.9180 C.2     1  UNL1        0.2506
      6 O         140.7453  138.4728  155.7589 O.2     1  UNL1       -0.2727
      7 C         139.7328  138.7971  158.5641 C.3     1  UNL1        0.1149
      8 C         139.2266  138.9593  159.9668 C.3     1  UNL1        0.1123
      9 C         138.5608  140.1993  164.3955 C.ar    1  UNL1        0.1504
     10 C         139.0670  140.0370  162.9928 C.ar    1  UNL1        0.0523
     11 C         139.5764  138.7047  162.5287 C.ar    1  UNL1        0.0510
     12 C         139.5795  137.5346  163.4671 C.ar    1  UNL1        0.0156
     13 C         139.0733  137.6968  164.8697 C.ar    1  UNL1        0.0157
     14 C         138.5640  139.0291  165.3339 C.ar    1  UNL1        0.0916
     15 CL        138.0578  139.1913  166.7366 Cl      1  UNL1       -0.0791
     16 C         138.9833  142.7043  164.9396 C.3     1  UNL1        0.2525
     17 O         138.0515  141.5316  164.8596 O.3     1  UNL1       -0.4705
     18 C         142.9634  137.4770  156.6745 C.3     1  UNL1        0.2116
     19 N         143.1194  136.0065  156.4234 N.ar    1  UNL1       -0.2447
     20 N         143.5702  134.9841  157.4241 N.ar    1  UNL1       -0.1642
     21 C         143.5813  133.6459  156.7467 C.ar    1  UNL1        0.1837
     22 C         143.1374  133.8411  155.3272 C.ar    1  UNL1        0.0941
     23 CL        143.0027  132.7662  154.2898 Cl      1  UNL1       -0.0795
     24 C         142.8519  135.3000  155.1274 C.ar    1  UNL1        0.0685
     25 C         142.3815  135.9402  153.8551 C.3     1  UNL1        0.0527
     26 C         143.9685  132.3413  157.3779 C.3     1  UNL1        0.4373
     27 F         144.3556  131.0368  158.0091 F       1  UNL1       -0.1643
     28 F         145.3658  132.8505  157.5733 F       1  UNL1       -0.1643
     29 F         142.5711  131.8321  157.1826 F       1  UNL1       -0.1643
@<TRIPOS>BOND
     1    16    17    1
     2    17     9    1
     3     9    10   ar
     4    10    11   ar
     5    11     1    1
     6     1     2    1
     7     2     3    1
     8     3     4    1
     9     4     5   am
    10     5     6    2
    11     5    18    1
    12    18    19    1
    13    19    20   ar
    14    20    21   ar
    15    21    26    1
    16    26    27    1
    17    26    28    1
    18    26    29    1
    19    21    22   ar
    20    22    23    1
    21    22    24   ar
    22    24    25    1
    23     4     7    1
    24     7     8    1
    25    11    12   ar
    26    12    13   ar
    27    13    14   ar
    28    14    15    1
    29    14     9   ar
    30     8     1    1
    31    24    19   ar
@<TRIPOS>MOLECULE
*****
 29 31 0 0 0
SMALL
GASTEIGER

@<TRIPOS>ATOM
      1 N         142.5339  138.3980  159.6897 N.pl3   1  UNL1       -0.3040
      2 C         142.1231  137.8176  161.0105 C.3     1  UNL1        0.1123
      3 C         142.7390  138.3295  162.2788 C.3     1  UNL1        0.1149
      4 N         143.7657  139.4218  162.2264 N.am    1  UNL1       -0.2744
      5 C         144.3816  139.9337  163.4947 C.2     1  UNL1        0.2506
      6 O         145.4083  141.0260  163.4422 O.2     1  UNL1       -0.2727
      7 C         144.1765  140.0022  160.9056 C.3     1  UNL1        0.1149
      8 C         143.5606  139.4903  159.6373 C.3     1  UNL1        0.1123
      9 C         142.1011  136.5028  156.2298 C.ar    1  UNL1        0.1504
     10 C         142.7170  137.0148  157.4981 C.ar    1  UNL1        0.0523
     11 C         141.9180  137.8861  158.4214 C.ar    1  UNL1        0.0510
     12 C         140.5032  138.2454  158.0764 C.ar    1  UNL1        0.0156
     13 C         139.8873  137.7335  156.8081 C.ar    1  UNL1        0.0157
     14 C         140.6863  136.8622  155.8848 C.ar    1  UNL1        0.0916
     15 CL        140.0703  136.3502  154.6165 Cl      1  UNL1       -0.0791
     16 C         142.9152  134.1447  155.5042 C.3     1  UNL1        0.2525
     17 O         142.9001  135.6315  155.3065 O.3     1  UNL1       -0.4705
     18 C         143.9708  139.3533  164.8154 C.3     1  UNL1        0.2116
     19 N         142.6907  139.7925  165.4621 N.ar    1  UNL1       -0.2447
     20 N         141.4464  138.9671  165.6045 N.ar    1  UNL1       -0.1642
     21 C         140.4167  139.7987  166.3103 C.ar    1  UNL1        0.1837
     22 C         141.0246  141.1382  166.6041 C.ar    1  UNL1        0.0941
     23 CL        140.3463  142.2809  167.2999 Cl      1  UNL1       -0.0795
     24 C         142.4300  141.1344  166.0798 C.ar    1  UNL1        0.0685
     25 C         143.4038  142.2725  166.1594 C.3     1  UNL1        0.0527
     26 C         139.0236  139.3668  166.6608 C.3     1  UNL1        0.4373
     27 F         137.6306  138.9348  167.0113 F       1  UNL1       -0.1643
     28 F         139.3658  139.4466  168.1191 F       1  UNL1       -0.1643
     29 F         138.6815  139.2870  165.2025 F       1  UNL1       -0.1643
@<TRIPOS>BOND
     1    16    17    1
     2    17     9    1
     3     9    10   ar
     4    10    11   ar
     5    11     1    1
     6     1     2    1
     7     2     3    1
     8     3     4    1
     9     4     5   am
    10     5     6    2
    11     5    18    1
    12    18    19    1
    13    19    20   ar
    14    20    21   ar
    15    21    26    1
    16    26    27    1
    17    26    28    1
    18    26    29    1
    19    21    22   ar
    20    22    23    1
    21    22    24   ar
    22    24    25    1
    23     4     7    1
    24     7     8    1
    25    11    12   ar
    26    12    13   ar
    27    13    14   ar
    28    14    15    1
    29    14     9   ar
    30     8     1    1
    31    24    19   ar
@<TRIPOS>MOLECULE
*****
 29 31 0 0 0
SMALL
GASTEIGER

@<TRIPOS>ATOM
      1 N         139.1180  140.1141  162.4603 N.pl3   1  UNL1       -0.3040
      2 C         138.5294  141.2792  161.7213 C.3     1  UNL1        0.1123
      3 C         138.3801  141.2233  160.2298 C.3     1  UNL1        0.1149
      4 N         138.8194  140.0023  159.4773 N.am    1  UNL1       -0.2744
      5 C         138.6701  139.9464  157.9858 C.2     1  UNL1        0.2506
      6 O         139.1094  138.7254  157.2334 O.2     1  UNL1       -0.2727
      7 C         139.4080  138.8372  160.2163 C.3     1  UNL1        0.1149
      8 C         139.5572  138.8931  161.7079 C.3     1  UNL1        0.1123
      9 C         138.5034  139.4202  166.3192 C.ar    1  UNL1        0.1504
     10 C         138.3542  139.3643  164.8277 C.ar    1  UNL1        0.0523
     11 C         139.2673  140.1700  163.9519 C.ar    1  UNL1        0.0510
     12 C         140.3295  141.0317  164.5675 C.ar    1  UNL1        0.0156
     13 C         140.4788  141.0876  166.0590 C.ar    1  UNL1        0.0157
     14 C         139.5657  140.2819  166.9348 C.ar    1  UNL1        0.0916
     15 CL        139.7150  140.3378  168.4264 Cl      1  UNL1       -0.0791
     16 C         137.3740  137.1572  166.9132 C.3     1  UNL1        0.2525
     17 O         137.5904  138.6145  167.1950 O.3     1  UNL1       -0.4705
     18 C         138.0816  141.1114  157.2468 C.3     1  UNL1        0.2116
     19 N         136.7622  140.9673  156.5480 N.ar    1  UNL1       -0.2447
     20 N         135.5244  140.3434  157.1213 N.ar    1  UNL1       -0.1642
     21 C         134.4461  140.4123  156.0809 C.ar    1  UNL1        0.1837
     22 C         135.0174  141.0787  154.8645 C.ar    1  UNL1        0.0941
     23 CL        134.2857  141.3538  153.5843 Cl      1  UNL1       -0.0795
     24 C         136.4488  141.4217  155.1532 C.ar    1  UNL1        0.0685
     25 C         137.3999  142.1000  154.2123 C.3     1  UNL1        0.0527
     26 C         133.0428  139.9039  156.2306 C.3     1  UNL1        0.4373
     27 F         131.6395  139.3956  156.3803 F       1  UNL1       -0.1643
     28 F         133.5572  138.4954  156.2701 F       1  UNL1       -0.1643
     29 F         132.5283  141.3124  156.1911 F       1  UNL1       -0.1643
@<TRIPOS>BOND
     1    16    17    1
     2    17     9    1
     3     9    10   ar
     4    10    11   ar
     5    11     1    1
     6     1     2    1
     7     2     3    1
     8     3     4    1
     9     4     5   am
    10     5     6    2
    11     5    18    1
    12    18    19    1
    13    19    20   ar
    14    20    21   ar
    15    21    26    1
    16    26    27    1
    17    26    28    1
    18    26    29    1
    19    21    22   ar
    20    22    23    1
    21    22    24   ar
    22    24    25    1
    23     4     7    1
    24     7     8    1
    25    11    12   ar
    26    12    13   ar
    27    13    14   ar
    28    14    15    1
    29    14     9   ar
    30     8     1    1
    31    24    19   ar
@<TRIPOS>MOLECULE
*****
 29 31 0 0 0
SMALL
GASTEIGER

@<TRIPOS>ATOM
      1 N         140.2312  144.4834  159.4144 N.pl3   1  UNL1       -0.3040
      2 C         139.4974  143.2092  159.7111 C.3     1  UNL1        0.1123
      3 C         138.9114  142.9809  161.0728 C.3     1  UNL1        0.1149
      4 N         139.0591  144.0267  162.1380 N.am    1  UNL1       -0.2744
      5 C         138.4731  143.7983  163.4997 C.2     1  UNL1        0.2506
      6 O         138.6209  144.8441  164.5648 O.2     1  UNL1       -0.2727
      7 C         139.7929  145.3009  161.8413 C.3     1  UNL1        0.1149
      8 C         140.3789  145.5292  160.4794 C.3     1  UNL1        0.1123
      9 C         140.8546  146.0235  155.8103 C.ar    1  UNL1        0.1504
     10 C         140.2686  145.7952  157.1721 C.ar    1  UNL1        0.0523
     11 C         140.8172  144.7118  158.0526 C.ar    1  UNL1        0.0510
     12 C         141.9517  143.8567  157.5713 C.ar    1  UNL1        0.0156
     13 C         142.5377  144.0850  156.2095 C.ar    1  UNL1        0.0157
     14 C         141.9891  145.1685  155.3290 C.ar    1  UNL1        0.0916
     15 CL        142.5752  145.3968  153.9672 Cl      1  UNL1       -0.0791
     16 C         139.0872  147.8720  155.3528 C.3     1  UNL1        0.2525
     17 O         140.3060  147.1070  154.9298 O.3     1  UNL1       -0.4705
     18 C         137.7393  142.5242  163.7964 C.3     1  UNL1        0.2116
     19 N         138.4330  141.4113  164.5247 N.ar    1  UNL1       -0.2447
     20 N         139.1299  141.5236  165.8481 N.ar    1  UNL1       -0.1642
     21 C         139.6792  140.1725  166.1988 C.ar    1  UNL1        0.1837
     22 C         139.3216  139.2252  165.0920 C.ar    1  UNL1        0.0941
     23 CL        139.6726  137.7682  165.0307 Cl      1  UNL1       -0.0795
     24 C         138.5514  139.9909  164.0574 C.ar    1  UNL1        0.0685
     25 C         137.9970  139.4339  162.7797 C.3     1  UNL1        0.0527
     26 C         140.4505  139.8290  167.4386 C.3     1  UNL1        0.4373
     27 F         141.2219  139.4855  168.6784 F       1  UNL1       -0.1643
     28 F         141.7102  139.7371  166.6294 F       1  UNL1       -0.1643
     29 F         139.1909  139.9209  168.2478 F       1  UNL1       -0.1643
@<TRIPOS>BOND
     1    16    17    1
     2    17     9    1
     3     9    10   ar
     4    10    11   ar
     5    11     1    1
     6     1     2    1
     7     2     3    1
     8     3     4    1
     9     4     5   am
    10     5     6    2
    11     5    18    1
    12    18    19    1
    13    19    20   ar
    14    20    21   ar
    15    21    26    1
    16    26    27    1
    17    26    28    1
    18    26    29    1
    19    21    22   ar
    20    22    23    1
    21    22    24   ar
    22    24    25    1
    23     4     7    1
    24     7     8    1
    25    11    12   ar
    26    12    13   ar
    27    13    14   ar
    28    14    15    1
    29    14     9   ar
    30     8     1    1
    31    24    19   ar
