@<TRIPOS>MOLECULE
*****
 33 36 0 0 0
SMALL
GASTEIGER

@<TRIPOS>ATOM
      1 C         140.0265  140.6876  168.2390 C.ar    1  UNL1        0.0327
      2 C         139.9954  140.6409  166.7401 C.ar    1  UNL1        0.0044
      3 C         138.9645  139.8087  166.0368 C.ar    1  UNL1        0.0193
      4 C         137.9646  139.0232  166.8325 C.ar    1  UNL1        0.1002
      5 N         137.9956  139.0699  168.3314 N.ar    1  UNL1       -0.2296
      6 C         139.0265  139.9021  169.0347 C.ar    1  UNL1        0.1254
      7 N         139.0575  139.9489  170.5337 N.pl3   1  UNL1       -0.3426
      8 H         138.4012  139.4333  171.0559 H       1  UNL1        0.1437
      9 H         139.7341  140.4951  170.9953 H       1  UNL1        0.1437
     10 C         143.1192  143.1844  170.3488 C.ar    1  UNL1        0.2250
     11 C         143.5070  141.8728  169.7328 C.ar    1  UNL1        0.0577
     12 C         142.4760  141.0406  169.0295 C.ar    1  UNL1        0.0064
     13 C         141.0574  141.5199  168.9423 C.ar    1  UNL1        0.0221
     14 C         140.6697  142.8314  169.5582 C.ar    1  UNL1        0.1021
     15 N         141.7006  143.6637  170.2615 N.ar    1  UNL1       -0.2101
     16 C         145.6020  143.8592  170.7096 C.3     1  UNL1        0.2542
     17 O         144.1502  144.0166  171.0520 O.3     1  UNL1       -0.4561
     18 C         138.9335  139.7620  164.5378 C.ar    1  UNL1        0.0016
     19 C         139.1966  141.0066  163.7431 C.ar    1  UNL1        0.0014
     20 C         139.1656  140.9599  162.2441 C.ar    1  UNL1        0.0199
     21 C         138.8716  139.6685  161.5399 C.ar    1  UNL1        0.1222
     22 C         138.6085  138.4238  162.3347 C.ar    1  UNL1        0.0199
     23 C         138.6395  138.4706  163.8336 C.ar    1  UNL1        0.0014
     24 S         138.8406  139.6217  160.0410 S.O2    1  UNL1        0.0634
     25 O         138.1910  140.9735  160.0122 O.2     1  UNL1       -0.1528
     26 O         139.4901  138.2700  160.0697 O.2     1  UNL1       -0.1528
     27 N         138.8096  139.5750  158.5421 N.3     1  UNL1       -0.1527
     28 C         137.9668  140.5531  157.7784 C.3     1  UNL1        0.1131
     29 C         137.9358  140.5064  156.2795 C.3     1  UNL1        0.0915
     30 N         138.7476  139.4815  155.5441 N.3     1  UNL1       -0.2690
     31 C         138.7166  139.4347  154.0452 C.3     1  UNL1        0.0897
     32 C         139.5903  138.5034  156.3077 C.3     1  UNL1        0.0915
     33 C         139.6213  138.5501  157.8067 C.3     1  UNL1        0.1131
@<TRIPOS>BOND
     1    16    17    1
     2    17    10    1
     3    10    11   ar
     4    11    12   ar
     5    12    13   ar
     6    13     1    1
     7     1     2   ar
     8     2     3   ar
     9     3    18    1
    10    18    19   ar
    11    19    20   ar
    12    20    21   ar
    13    21    24    1
    14    24    25    2
    15    24    26    2
    16    24    27    1
    17    27    28    1
    18    28    29    1
    19    29    30    1
    20    30    31    1
    21    30    32    1
    22    32    33    1
    23    21    22   ar
    24    22    23   ar
    25     3     4   ar
    26     4     5   ar
    27     5     6   ar
    28     6     7    1
    29    13    14   ar
    30    14    15   ar
    31    15    10   ar
    32     6     1   ar
    33    23    18   ar
    34    33    27    1
    35     7     8    1
    36     7     9    1
@<TRIPOS>MOLECULE
*****
 33 36 0 0 0
SMALL
GASTEIGER

@<TRIPOS>ATOM
      1 C         140.1375  140.5149  167.9944 C.ar    1  UNL1        0.0327
      2 C         140.4229  140.2824  166.5403 C.ar    1  UNL1        0.0044
      3 C         139.5278  139.3890  165.7337 C.ar    1  UNL1        0.0193
      4 C         138.3472  138.7281  166.3812 C.ar    1  UNL1        0.1002
      5 N         138.0617  138.9606  167.8353 N.ar    1  UNL1       -0.2296
      6 C         138.9568  139.8540  168.6419 C.ar    1  UNL1        0.1254
      7 N         138.6713  140.0865  170.0960 N.pl3   1  UNL1       -0.3426
      8 H         137.8963  139.6527  170.5210 H       1  UNL1        0.1437
      9 H         139.2588  140.6728  170.6255 H       1  UNL1        0.1437
     10 C         142.8229  143.1950  170.4142 C.ar    1  UNL1        0.2250
     11 C         143.3435  141.8914  169.8854 C.ar    1  UNL1        0.0577
     12 C         142.4484  140.9981  169.0788 C.ar    1  UNL1        0.0064
     13 C         141.0326  141.4082  168.8010 C.ar    1  UNL1        0.0221
     14 C         140.5120  142.7118  169.3298 C.ar    1  UNL1        0.1021
     15 N         141.4071  143.6052  170.1364 N.ar    1  UNL1       -0.2101
     16 C         145.1937  144.1111  170.9527 C.3     1  UNL1        0.2542
     17 O         143.7180  144.0884  171.2208 O.3     1  UNL1       -0.4561
     18 C         139.8134  139.1565  164.2796 C.ar    1  UNL1        0.0016
     19 C         138.7528  138.5787  163.3900 C.ar    1  UNL1        0.0014
     20 C         139.0384  138.3462  161.9359 C.ar    1  UNL1        0.0199
     21 C         140.3845  138.6916  161.3714 C.ar    1  UNL1        0.1222
     22 C         141.4451  139.2694  162.2610 C.ar    1  UNL1        0.0199
     23 C         141.1595  139.5018  163.7151 C.ar    1  UNL1        0.0014
     24 S         140.6701  138.4591  159.9173 S.O2    1  UNL1        0.0634
     25 O         142.1071  138.1800  160.2442 O.2     1  UNL1       -0.1528
     26 O         139.2330  138.7382  159.5904 O.2     1  UNL1       -0.1528
     27 N         140.9557  138.2267  158.4632 N.3     1  UNL1       -0.1527
     28 C         139.8260  137.9858  157.5062 C.3     1  UNL1        0.1131
     29 C         140.1116  137.7533  156.0521 C.3     1  UNL1        0.0915
     30 N         141.5268  137.7617  155.5550 N.3     1  UNL1       -0.2690
     31 C         141.8124  137.5293  154.1009 C.3     1  UNL1        0.0897
     32 C         142.6564  138.0026  156.5120 C.3     1  UNL1        0.0915
     33 C         142.3709  138.2351  157.9661 C.3     1  UNL1        0.1131
@<TRIPOS>BOND
     1    16    17    1
     2    17    10    1
     3    10    11   ar
     4    11    12   ar
     5    12    13   ar
     6    13     1    1
     7     1     2   ar
     8     2     3   ar
     9     3    18    1
    10    18    19   ar
    11    19    20   ar
    12    20    21   ar
    13    21    24    1
    14    24    25    2
    15    24    26    2
    16    24    27    1
    17    27    28    1
    18    28    29    1
    19    29    30    1
    20    30    31    1
    21    30    32    1
    22    32    33    1
    23    21    22   ar
    24    22    23   ar
    25     3     4   ar
    26     4     5   ar
    27     5     6   ar
    28     6     7    1
    29    13    14   ar
    30    14    15   ar
    31    15    10   ar
    32     6     1   ar
    33    23    18   ar
    34    33    27    1
    35     7     8    1
    36     7     9    1
@<TRIPOS>MOLECULE
*****
 33 36 0 0 0
SMALL
GASTEIGER

@<TRIPOS>ATOM
      1 C         140.1172  140.9588  167.8721 C.ar    1  UNL1        0.0327
      2 C         139.9682  141.2285  166.4041 C.ar    1  UNL1        0.0044
      3 C         138.9549  140.4682  165.6009 C.ar    1  UNL1        0.0193
      4 C         138.0907  139.4381  166.2657 C.ar    1  UNL1        0.1002
      5 N         138.2397  139.1683  167.7337 N.ar    1  UNL1       -0.2296
      6 C         139.2530  139.9287  168.5369 C.ar    1  UNL1        0.1254
      7 N         139.4020  139.6589  170.0049 N.pl3   1  UNL1       -0.3426
      8 H         138.8348  138.9828  170.4412 H       1  UNL1        0.1437
      9 H         140.0670  140.1580  170.5321 H       1  UNL1        0.1437
     10 C         143.1570  143.2399  170.2817 C.ar    1  UNL1        0.2250
     11 C         141.7308  143.7027  170.2422 C.ar    1  UNL1        0.0577
     12 C         140.7175  142.9423  169.4390 C.ar    1  UNL1        0.0064
     13 C         141.1305  141.7192  168.6753 C.ar    1  UNL1        0.0221
     14 C         142.5567  141.2564  168.7148 C.ar    1  UNL1        0.1021
     15 N         143.5700  142.0168  169.5180 N.ar    1  UNL1       -0.2101
     16 C         145.6292  143.8823  170.7568 C.3     1  UNL1        0.2542
     17 O         144.1703  144.0003  171.0849 O.3     1  UNL1       -0.4561
     18 C         138.8059  140.7379  164.1329 C.ar    1  UNL1        0.0016
     19 C         138.1343  141.9951  163.6657 C.ar    1  UNL1        0.0014
     20 C         137.9853  142.2649  162.1977 C.ar    1  UNL1        0.0199
     21 C         138.5079  141.2774  161.1968 C.ar    1  UNL1        0.1222
     22 C         139.1796  140.0201  161.6641 C.ar    1  UNL1        0.0199
     23 C         139.3286  139.7504  163.1320 C.ar    1  UNL1        0.0014
     24 S         138.3589  141.5471  159.7289 S.O2    1  UNL1        0.0634
     25 O         138.5262  140.0842  159.4431 O.2     1  UNL1       -0.1528
     26 O         138.1917  143.0101  160.0146 O.2     1  UNL1       -0.1528
     27 N         138.2100  141.8168  158.2609 N.3     1  UNL1       -0.1527
     28 C         137.3392  140.9309  157.4201 C.3     1  UNL1        0.1131
     29 C         137.1902  141.2006  155.9521 C.3     1  UNL1        0.0915
     30 N         137.9120  142.3563  155.3248 N.3     1  UNL1       -0.2690
     31 C         137.7630  142.6260  153.8569 C.3     1  UNL1        0.0897
     32 C         138.7827  143.2422  156.1655 C.3     1  UNL1        0.0915
     33 C         138.9317  142.9725  157.6336 C.3     1  UNL1        0.1131
@<TRIPOS>BOND
     1    16    17    1
     2    17    10    1
     3    10    11   ar
     4    11    12   ar
     5    12    13   ar
     6    13     1    1
     7     1     2   ar
     8     2     3   ar
     9     3    18    1
    10    18    19   ar
    11    19    20   ar
    12    20    21   ar
    13    21    24    1
    14    24    25    2
    15    24    26    2
    16    24    27    1
    17    27    28    1
    18    28    29    1
    19    29    30    1
    20    30    31    1
    21    30    32    1
    22    32    33    1
    23    21    22   ar
    24    22    23   ar
    25     3     4   ar
    26     4     5   ar
    27     5     6   ar
    28     6     7    1
    29    13    14   ar
    30    14    15   ar
    31    15    10   ar
    32     6     1   ar
    33    23    18   ar
    34    33    27    1
    35     7     8    1
    36     7     9    1
@<TRIPOS>MOLECULE
*****
 33 36 0 0 0
SMALL
GASTEIGER

@<TRIPOS>ATOM
      1 C         142.2753  139.9333  168.1196 C.ar    1  UNL1        0.0327
      2 C         142.3335  139.9635  166.6210 C.ar    1  UNL1        0.0044
      3 C         143.1036  138.9117  165.8790 C.ar    1  UNL1        0.0193
      4 C         143.8155  137.8297  166.6354 C.ar    1  UNL1        0.1002
      5 N         143.7573  137.7994  168.1339 N.ar    1  UNL1       -0.2296
      6 C         142.9872  138.8512  168.8760 C.ar    1  UNL1        0.1254
      7 N         142.9290  138.8208  170.3746 N.pl3   1  UNL1       -0.3426
      8 H         143.3963  138.1106  170.8711 H       1  UNL1        0.1437
      9 H         142.4236  139.5112  170.8617 H       1  UNL1        0.1437
     10 C         139.9650  143.0887  170.3458 C.ar    1  UNL1        0.2250
     11 C         141.2793  143.4307  169.7088 C.ar    1  UNL1        0.0577
     12 C         142.0493  142.3789  168.9667 C.ar    1  UNL1        0.0064
     13 C         141.5052  140.9851  168.8617 C.ar    1  UNL1        0.0221
     14 C         140.1910  140.6430  169.4987 C.ar    1  UNL1        0.1021
     15 N         139.4209  141.6948  170.2407 N.ar    1  UNL1       -0.2101
     16 C         139.4295  145.5918  170.7902 C.3     1  UNL1        0.2542
     17 O         139.1950  144.1404  171.0879 O.3     1  UNL1       -0.4561
     18 C         143.1618  138.9421  164.3803 C.ar    1  UNL1        0.0016
     19 C         144.1695  139.8097  163.6863 C.ar    1  UNL1        0.0014
     20 C         144.2277  139.8400  162.1877 C.ar    1  UNL1        0.0199
     21 C         143.2781  139.0027  161.3832 C.ar    1  UNL1        0.1222
     22 C         142.2704  138.1351  162.0773 C.ar    1  UNL1        0.0199
     23 C         142.2122  138.1048  163.5758 C.ar    1  UNL1        0.0014
     24 S         143.3363  139.0330  159.8847 S.O2    1  UNL1        0.0634
     25 O         143.8352  140.4468  159.9326 O.2     1  UNL1       -0.1528
     26 O         142.8374  137.6192  159.8367 O.2     1  UNL1       -0.1528
     27 N         143.3944  139.0633  158.3861 N.3     1  UNL1       -0.1527
     28 C         144.0100  140.2367  157.6830 C.3     1  UNL1        0.1131
     29 C         144.0681  140.2670  156.1844 C.3     1  UNL1        0.0915
     30 N         143.5107  139.1239  155.3890 N.3     1  UNL1       -0.2690
     31 C         143.5689  139.1542  153.8904 C.3     1  UNL1        0.0897
     32 C         142.8952  137.9506  156.0920 C.3     1  UNL1        0.0915
     33 C         142.8371  137.9202  157.5907 C.3     1  UNL1        0.1131
@<TRIPOS>BOND
     1    16    17    1
     2    17    10    1
     3    10    11   ar
     4    11    12   ar
     5    12    13   ar
     6    13     1    1
     7     1     2   ar
     8     2     3   ar
     9     3    18    1
    10    18    19   ar
    11    19    20   ar
    12    20    21   ar
    13    21    24    1
    14    24    25    2
    15    24    26    2
    16    24    27    1
    17    27    28    1
    18    28    29    1
    19    29    30    1
    20    30    31    1
    21    30    32    1
    22    32    33    1
    23    21    22   ar
    24    22    23   ar
    25     3     4   ar
    26     4     5   ar
    27     5     6   ar
    28     6     7    1
    29    13    14   ar
    30    14    15   ar
    31    15    10   ar
    32     6     1   ar
    33    23    18   ar
    34    33    27    1
    35     7     8    1
    36     7     9    1
@<TRIPOS>MOLECULE
*****
 33 36 0 0 0
SMALL
GASTEIGER

@<TRIPOS>ATOM
      1 C         140.4025  139.0714  163.4296 C.ar    1  UNL1        0.0327
      2 C         140.2747  140.2222  162.4762 C.ar    1  UNL1        0.0044
      3 C         140.7421  140.0770  161.0583 C.ar    1  UNL1        0.0193
      4 C         141.3374  138.7809  160.5938 C.ar    1  UNL1        0.1002
      5 N         141.4652  137.6301  161.5472 N.ar    1  UNL1       -0.2296
      6 C         140.9977  137.7753  162.9651 C.ar    1  UNL1        0.1254
      7 N         141.1256  136.6243  163.9186 N.pl3   1  UNL1       -0.3426
      8 H         141.5163  135.7736  163.6137 H       1  UNL1        0.1437
      9 H         140.8188  136.7196  164.8492 H       1  UNL1        0.1437
     10 C         139.0002  139.5070  167.6833 C.ar    1  UNL1        0.2250
     11 C         138.0992  138.8881  166.6562 C.ar    1  UNL1        0.0577
     12 C         138.5666  138.7429  165.2383 C.ar    1  UNL1        0.0064
     13 C         139.9351  139.2166  164.8475 C.ar    1  UNL1        0.0221
     14 C         140.8362  139.8355  165.8746 C.ar    1  UNL1        0.1021
     15 N         140.3687  139.9807  167.2925 N.ar    1  UNL1       -0.2101
     16 C         139.3548  140.4296  170.0860 C.3     1  UNL1        0.2542
     17 O         138.5328  139.6522  169.1012 O.3     1  UNL1       -0.4561
     18 C         140.6143  141.2280  160.1048 C.ar    1  UNL1        0.0016
     19 C         141.0325  141.0662  158.6735 C.ar    1  UNL1        0.0014
     20 C         140.9046  142.2172  157.7200 C.ar    1  UNL1        0.0199
     21 C         140.3586  143.5299  158.1980 C.ar    1  UNL1        0.1222
     22 C         139.9404  143.6917  159.6295 C.ar    1  UNL1        0.0199
     23 C         140.0682  142.5408  160.5828 C.ar    1  UNL1        0.0014
     24 S         140.2307  144.6809  157.2447 S.O2    1  UNL1        0.0634
     25 O         139.8573  143.7298  156.1465 O.2     1  UNL1       -0.1528
     26 O         140.6042  145.6320  158.3428 O.2     1  UNL1       -0.1528
     27 N         140.1029  145.8318  156.2913 N.3     1  UNL1       -0.1527
     28 C         139.2250  146.9981  156.6369 C.3     1  UNL1        0.1131
     29 C         139.0972  148.1490  155.6835 C.3     1  UNL1        0.0915
     30 N         139.8471  148.1338  154.3846 N.3     1  UNL1       -0.2690
     31 C         139.7193  149.2847  153.4312 C.3     1  UNL1        0.0897
     32 C         140.7249  146.9677  154.0390 C.3     1  UNL1        0.0915
     33 C         140.8528  145.8166  154.9923 C.3     1  UNL1        0.1131
@<TRIPOS>BOND
     1    16    17    1
     2    17    10    1
     3    10    11   ar
     4    11    12   ar
     5    12    13   ar
     6    13     1    1
     7     1     2   ar
     8     2     3   ar
     9     3    18    1
    10    18    19   ar
    11    19    20   ar
    12    20    21   ar
    13    21    24    1
    14    24    25    2
    15    24    26    2
    16    24    27    1
    17    27    28    1
    18    28    29    1
    19    29    30    1
    20    30    31    1
    21    30    32    1
    22    32    33    1
    23    21    22   ar
    24    22    23   ar
    25     3     4   ar
    26     4     5   ar
    27     5     6   ar
    28     6     7    1
    29    13    14   ar
    30    14    15   ar
    31    15    10   ar
    32     6     1   ar
    33    23    18   ar
    34    33    27    1
    35     7     8    1
    36     7     9    1
@<TRIPOS>MOLECULE
*****
 33 36 0 0 0
SMALL
GASTEIGER

@<TRIPOS>ATOM
      1 C         139.7139  143.0486  164.0196 C.ar    1  UNL1        0.0327
      2 C         140.7190  142.7937  162.9357 C.ar    1  UNL1        0.0044
      3 C         140.6876  143.6088  161.6769 C.ar    1  UNL1        0.0193
      4 C         139.6510  144.6788  161.5019 C.ar    1  UNL1        0.1002
      5 N         138.6460  144.9337  162.5857 N.ar    1  UNL1       -0.2296
      6 C         138.6774  144.1186  163.8446 C.ar    1  UNL1        0.1254
      7 N         137.6722  144.3736  164.9285 N.pl3   1  UNL1       -0.3426
      8 H         136.9919  145.0759  164.8136 H       1  UNL1        0.1437
      9 H         137.6929  143.8386  165.7547 H       1  UNL1        0.1437
     10 C         139.8083  140.6034  167.7961 C.ar    1  UNL1        0.2250
     11 C         139.1681  140.0478  166.5586 C.ar    1  UNL1        0.0577
     12 C         139.1366  140.8628  165.2998 C.ar    1  UNL1        0.0064
     13 C         139.7454  142.2335  165.2784 C.ar    1  UNL1        0.0221
     14 C         140.3856  142.7892  166.5159 C.ar    1  UNL1        0.1021
     15 N         140.4170  141.9741  167.7747 N.ar    1  UNL1       -0.2101
     16 C         141.1039  139.6954  169.8568 C.3     1  UNL1        0.2542
     17 O         139.8397  139.7883  169.0549 O.3     1  UNL1       -0.4561
     18 C         141.6927  143.3538  160.5930 C.ar    1  UNL1        0.0016
     19 C         142.7965  142.3620  160.8119 C.ar    1  UNL1        0.0014
     20 C         143.8016  142.1070  159.7280 C.ar    1  UNL1        0.0199
     21 C         143.7030  142.8440  158.4253 C.ar    1  UNL1        0.1222
     22 C         142.5992  143.8358  158.2064 C.ar    1  UNL1        0.0199
     23 C         141.5941  144.0908  159.2902 C.ar    1  UNL1        0.0014
     24 S         144.7081  142.5890  157.3414 S.O2    1  UNL1        0.0634
     25 O         143.5958  142.4267  156.3482 O.2     1  UNL1       -0.1528
     26 O         145.8203  142.7514  158.3347 O.2     1  UNL1       -0.1528
     27 N         145.7131  142.3341  156.2576 N.3     1  UNL1       -0.1527
     28 C         147.1798  142.3769  156.5696 C.3     1  UNL1        0.1131
     29 C         148.1849  142.1220  155.4857 C.3     1  UNL1        0.0915
     30 N         147.7234  141.8243  154.0899 N.3     1  UNL1       -0.2690
     31 C         148.7285  141.5694  153.0060 C.3     1  UNL1        0.0897
     32 C         146.2569  141.7815  153.7778 C.3     1  UNL1        0.0915
     33 C         145.2517  142.0364  154.8617 C.3     1  UNL1        0.1131
@<TRIPOS>BOND
     1    16    17    1
     2    17    10    1
     3    10    11   ar
     4    11    12   ar
     5    12    13   ar
     6    13     1    1
     7     1     2   ar
     8     2     3   ar
     9     3    18    1
    10    18    19   ar
    11    19    20   ar
    12    20    21   ar
    13    21    24    1
    14    24    25    2
    15    24    26    2
    16    24    27    1
    17    27    28    1
    18    28    29    1
    19    29    30    1
    20    30    31    1
    21    30    32    1
    22    32    33    1
    23    21    22   ar
    24    22    23   ar
    25     3     4   ar
    26     4     5   ar
    27     5     6   ar
    28     6     7    1
    29    13    14   ar
    30    14    15   ar
    31    15    10   ar
    32     6     1   ar
    33    23    18   ar
    34    33    27    1
    35     7     8    1
    36     7     9    1
@<TRIPOS>MOLECULE
*****
 33 36 0 0 0
SMALL
GASTEIGER

@<TRIPOS>ATOM
      1 C         143.0034  136.9968  156.9645 C.ar    1  UNL1        0.0327
      2 C         142.6964  137.1998  158.4187 C.ar    1  UNL1        0.0044
      3 C         142.9379  138.5357  159.0568 C.ar    1  UNL1        0.0193
      4 C         143.4863  139.6685  158.2409 C.ar    1  UNL1        0.1002
      5 N         143.7934  139.4655  156.7868 N.ar    1  UNL1       -0.2296
      6 C         143.5519  138.1296  156.1486 C.ar    1  UNL1        0.1254
      7 N         143.8590  137.9267  154.6944 N.pl3   1  UNL1       -0.3426
      8 H         144.2190  138.6702  154.1589 H       1  UNL1        0.1437
      9 H         143.7005  137.0499  154.2755 H       1  UNL1        0.1437
     10 C         142.2790  132.9893  155.0501 C.ar    1  UNL1        0.2250
     11 C         143.5715  133.2575  155.7625 C.ar    1  UNL1        0.0577
     12 C         143.8129  134.5933  156.4007 C.ar    1  UNL1        0.0064
     13 C         142.7620  135.6610  156.3264 C.ar    1  UNL1        0.0221
     14 C         141.4695  135.3928  155.6139 C.ar    1  UNL1        0.1021
     15 N         141.2281  134.0570  154.9758 N.ar    1  UNL1       -0.2101
     16 C         140.7066  130.9790  154.5646 C.3     1  UNL1        0.2542
     17 O         142.0376  131.6535  154.4119 O.3     1  UNL1       -0.4561
     18 C         142.6308  138.7386  160.5110 C.ar    1  UNL1        0.0016
     19 C         141.2642  139.1906  160.9330 C.ar    1  UNL1        0.0014
     20 C         140.9572  139.3936  162.3872 C.ar    1  UNL1        0.0199
     21 C         142.0168  139.1445  163.4193 C.ar    1  UNL1        0.1222
     22 C         143.3834  138.6925  162.9973 C.ar    1  UNL1        0.0199
     23 C         143.6904  138.4896  161.5431 C.ar    1  UNL1        0.0014
     24 S         141.7098  139.3475  164.8734 S.O2    1  UNL1        0.0634
     25 O         142.9191  138.5401  165.2415 O.2     1  UNL1       -0.1528
     26 O         140.5004  140.1549  164.5054 O.2     1  UNL1       -0.1528
     27 N         141.4028  139.5504  166.3276 N.3     1  UNL1       -0.1527
     28 C         142.5017  139.4659  167.3451 C.3     1  UNL1        0.1131
     29 C         142.1947  139.6689  168.7992 C.3     1  UNL1        0.0915
     30 N         140.7888  139.9563  169.2359 N.3     1  UNL1       -0.2690
     31 C         140.4818  140.1593  170.6900 C.3     1  UNL1        0.0897
     32 C         139.6899  140.0408  168.2185 C.3     1  UNL1        0.0915
     33 C         139.9968  139.8379  166.7643 C.3     1  UNL1        0.1131
@<TRIPOS>BOND
     1    16    17    1
     2    17    10    1
     3    10    11   ar
     4    11    12   ar
     5    12    13   ar
     6    13     1    1
     7     1     2   ar
     8     2     3   ar
     9     3    18    1
    10    18    19   ar
    11    19    20   ar
    12    20    21   ar
    13    21    24    1
    14    24    25    2
    15    24    26    2
    16    24    27    1
    17    27    28    1
    18    28    29    1
    19    29    30    1
    20    30    31    1
    21    30    32    1
    22    32    33    1
    23    21    22   ar
    24    22    23   ar
    25     3     4   ar
    26     4     5   ar
    27     5     6   ar
    28     6     7    1
    29    13    14   ar
    30    14    15   ar
    31    15    10   ar
    32     6     1   ar
    33    23    18   ar
    34    33    27    1
    35     7     8    1
    36     7     9    1
@<TRIPOS>MOLECULE
*****
 33 36 0 0 0
SMALL
GASTEIGER

@<TRIPOS>ATOM
      1 C         142.9553  142.7091  163.7574 C.ar    1  UNL1        0.0327
      2 C         142.7655  141.5792  162.7892 C.ar    1  UNL1        0.0044
      3 C         143.3558  141.6638  161.4128 C.ar    1  UNL1        0.0193
      4 C         144.1358  142.8782  161.0046 C.ar    1  UNL1        0.1002
      5 N         144.3256  144.0080  161.9727 N.ar    1  UNL1       -0.2296
      6 C         143.7354  143.9235  163.3491 C.ar    1  UNL1        0.1254
      7 N         143.9252  145.0534  164.3173 N.pl3   1  UNL1       -0.3426
      8 H         144.4372  145.8505  164.0493 H       1  UNL1        0.1437
      9 H         143.5379  144.9979  165.2207 H       1  UNL1        0.1437
     10 C         141.1847  142.4554  167.8866 C.ar    1  UNL1        0.2250
     11 C         140.3298  142.8773  166.7286 C.ar    1  UNL1        0.0577
     12 C         140.9200  142.9619  165.3522 C.ar    1  UNL1        0.0064
     13 C         142.3651  142.6245  165.1338 C.ar    1  UNL1        0.0221
     14 C         143.2200  142.2026  166.2918 C.ar    1  UNL1        0.1021
     15 N         142.6298  142.1180  167.6682 N.ar    1  UNL1       -0.2101
     16 C         140.3534  143.6224  170.0538 C.3     1  UNL1        0.2542
     17 O         140.5945  142.3709  169.2630 O.3     1  UNL1       -0.4561
     18 C         143.1659  140.5338  160.4447 C.ar    1  UNL1        0.0016
     19 C         143.3658  140.7631  158.9759 C.ar    1  UNL1        0.0014
     20 C         143.1759  139.6331  158.0077 C.ar    1  UNL1        0.0199
     21 C         142.7862  138.2740  158.5084 C.ar    1  UNL1        0.1222
     22 C         142.5863  138.0447  159.9773 C.ar    1  UNL1        0.0199
     23 C         142.7762  139.1746  160.9454 C.ar    1  UNL1        0.0014
     24 S         142.5963  137.1441  157.5403 S.O2    1  UNL1        0.0634
     25 O         143.3448  136.2281  158.4627 O.2     1  UNL1       -0.1528
     26 O         141.8479  138.0600  156.6180 O.2     1  UNL1       -0.1528
     27 N         142.4065  136.0141  156.5723 N.3     1  UNL1       -0.1527
     28 C         141.3091  136.0774  155.5515 C.3     1  UNL1        0.1131
     29 C         141.1193  134.9475  154.5834 C.3     1  UNL1        0.0915
     30 N         142.0267  133.7543  154.6360 N.3     1  UNL1       -0.2690
     31 C         141.8369  132.6244  153.6680 C.3     1  UNL1        0.0897
     32 C         143.1241  133.6910  155.6567 C.3     1  UNL1        0.0915
     33 C         143.3140  134.8209  156.6249 C.3     1  UNL1        0.1131
@<TRIPOS>BOND
     1    16    17    1
     2    17    10    1
     3    10    11   ar
     4    11    12   ar
     5    12    13   ar
     6    13     1    1
     7     1     2   ar
     8     2     3   ar
     9     3    18    1
    10    18    19   ar
    11    19    20   ar
    12    20    21   ar
    13    21    24    1
    14    24    25    2
    15    24    26    2
    16    24    27    1
    17    27    28    1
    18    28    29    1
    19    29    30    1
    20    30    31    1
    21    30    32    1
    22    32    33    1
    23    21    22   ar
    24    22    23   ar
    25     3     4   ar
    26     4     5   ar
    27     5     6   ar
    28     6     7    1
    29    13    14   ar
    30    14    15   ar
    31    15    10   ar
    32     6     1   ar
    33    23    18   ar
    34    33    27    1
    35     7     8    1
    36     7     9    1
@<TRIPOS>MOLECULE
*****
 33 36 0 0 0
SMALL
GASTEIGER

@<TRIPOS>ATOM
      1 C         141.1643  141.2308  168.8009 C.ar    1  UNL1        0.0327
      2 C         141.3012  140.9039  167.3434 C.ar    1  UNL1        0.0044
      3 C         140.2943  140.0143  166.6764 C.ar    1  UNL1        0.0193
      4 C         139.1506  139.4515  167.4670 C.ar    1  UNL1        0.1002
      5 N         139.0136  139.7783  168.9245 N.ar    1  UNL1       -0.2296
      6 C         140.0205  140.6680  169.5915 C.ar    1  UNL1        0.1254
      7 N         139.8835  140.9948  171.0490 N.pl3   1  UNL1       -0.3426
      8 H         139.1328  140.6255  171.5679 H       1  UNL1        0.1437
      9 H         140.5443  141.5787  171.4868 H       1  UNL1        0.1437
     10 C         144.1848  143.8997  170.8017 C.ar    1  UNL1        0.2250
     11 C         144.6319  142.6416  170.1182 C.ar    1  UNL1        0.0577
     12 C         143.6250  141.7519  169.4512 C.ar    1  UNL1        0.0064
     13 C         142.1711  142.1204  169.4678 C.ar    1  UNL1        0.0221
     14 C         141.7240  143.3785  170.1514 C.ar    1  UNL1        0.1021
     15 N         142.7309  144.2681  170.8183 N.ar    1  UNL1       -0.2101
     16 C         146.6577  144.5530  171.2574 C.3     1  UNL1        0.2542
     17 O         145.1916  144.7893  171.4686 O.3     1  UNL1       -0.4561
     18 C         140.4313  139.6874  165.2189 C.ar    1  UNL1        0.0016
     19 C         139.9669  140.6683  164.1834 C.ar    1  UNL1        0.0014
     20 C         140.1039  140.3414  162.7258 C.ar    1  UNL1        0.0199
     21 C         140.7052  139.0337  162.3038 C.ar    1  UNL1        0.1222
     22 C         141.1696  138.0528  163.3393 C.ar    1  UNL1        0.0199
     23 C         141.0326  138.3797  164.7968 C.ar    1  UNL1        0.0014
     24 S         140.8422  138.7068  160.8463 S.O2    1  UNL1        0.0634
     25 O         141.6542  137.4947  161.1944 O.2     1  UNL1       -0.1528
     26 O         140.0302  139.9190  160.4981 O.2     1  UNL1       -0.1528
     27 N         140.9792  138.3799  159.3888 N.3     1  UNL1       -0.1527
     28 C         139.7609  138.3216  158.5155 C.3     1  UNL1        0.1131
     29 C         139.8979  137.9948  157.0580 C.3     1  UNL1        0.0915
     30 N         141.2531  137.7262  156.4737 N.3     1  UNL1       -0.2690
     31 C         141.3901  137.3993  155.0162 C.3     1  UNL1        0.0897
     32 C         142.4713  137.7844  157.3469 C.3     1  UNL1        0.0915
     33 C         142.3343  138.1113  158.8045 C.3     1  UNL1        0.1131
@<TRIPOS>BOND
     1    16    17    1
     2    17    10    1
     3    10    11   ar
     4    11    12   ar
     5    12    13   ar
     6    13     1    1
     7     1     2   ar
     8     2     3   ar
     9     3    18    1
    10    18    19   ar
    11    19    20   ar
    12    20    21   ar
    13    21    24    1
    14    24    25    2
    15    24    26    2
    16    24    27    1
    17    27    28    1
    18    28    29    1
    19    29    30    1
    20    30    31    1
    21    30    32    1
    22    32    33    1
    23    21    22   ar
    24    22    23   ar
    25     3     4   ar
    26     4     5   ar
    27     5     6   ar
    28     6     7    1
    29    13    14   ar
    30    14    15   ar
    31    15    10   ar
    32     6     1   ar
    33    23    18   ar
    34    33    27    1
    35     7     8    1
    36     7     9    1
