@<TRIPOS>MOLECULE
*****
 29 32 0 0 0
SMALL
GASTEIGER

@<TRIPOS>ATOM
      1 C         138.4732  139.6963  164.9887 C.ar    1  UNL1        0.0764
      2 C         138.0735  141.0761  164.5573 C.ar    1  UNL1        0.0176
      3 C         138.1029  141.4455  163.1039 C.ar    1  UNL1        0.0175
      4 C         138.5321  140.4350  162.0817 C.ar    1  UNL1        0.0705
      5 C         138.9318  139.0552  162.5131 C.ar    1  UNL1        0.0724
      6 N         138.9024  138.6858  163.9665 N.ar    1  UNL1       -0.2511
      7 C         139.3609  138.0447  161.4909 C.3     1  UNL1        0.0489
      8 C         139.3903  138.4141  160.0375 C.3     1  UNL1        0.0283
      9 C         138.9906  139.7940  159.6061 C.3     1  UNL1        0.1020
     10 N         138.5614  140.8045  160.6282 N.am    1  UNL1       -0.2239
     11 C         138.1617  142.1844  160.1968 C.2     1  UNL1        0.4086
     12 O         137.7326  143.1949  161.2190 O.2     1  UNL1       -0.2258
     13 C         137.7007  138.1033  166.8902 C.3     1  UNL1        0.0278
     14 C         138.4438  139.3268  166.4422 C.3     1  UNL1        0.1121
     15 N         139.1576  140.1809  167.4477 N.am    1  UNL1       -0.2973
     16 C         140.6227  140.4606  167.2889 C.2     1  UNL1        0.2461
     17 O         141.3741  139.8863  166.1246 O.2     1  UNL1       -0.2701
     18 H         138.6645  140.5579  168.2119 H       1  UNL1        0.1500
     19 C         141.3365  141.3147  168.2944 C.ar    1  UNL1        0.0535
     20 C         140.6525  142.5147  168.8796 C.ar    1  UNL1        0.0068
     21 C         141.3663  143.3688  169.8851 C.ar    1  UNL1        0.0298
     22 C         142.7641  143.0229  170.3054 C.ar    1  UNL1        0.1401
     23 F         143.4779  143.8770  171.3109 F       1  UNL1       -0.2042
     24 C         143.4480  141.8230  169.7203 C.ar    1  UNL1        0.0298
     25 C         142.7342  140.9689  168.7148 C.ar    1  UNL1        0.0068
     26 O         138.1911  142.5539  158.7433 O.3     1  UNL1       -0.4381
     27 C         139.3539  143.3216  158.1880 C.3     1  UNL1        0.1707
     28 C         140.5420  143.4003  157.2758 C.3     1  UNL1        0.0474
     29 C         140.1797  144.5728  158.1383 C.3     1  UNL1        0.0474
@<TRIPOS>BOND
     1    14    13    1
     2    14    15    1
     3    15    16   am
     4    16    17    2
     5    16    19    1
     6    19    20   ar
     7    20    21   ar
     8    21    22   ar
     9    22    23    1
    10    22    24   ar
    11    24    25   ar
    12    14     1    1
    13     1     2   ar
    14     2     3   ar
    15     3     4   ar
    16     4     5   ar
    17     5     6   ar
    18     5     7    1
    19     7     8    1
    20     8     9    1
    21     9    10    1
    22    10    11   am
    23    11    12    2
    24    11    26    1
    25    26    27    1
    26    27    28    1
    27    28    29    1
    28    25    19   ar
    29     6     1   ar
    30    29    27    1
    31    10     4    1
    32    15    18    1
@<TRIPOS>MOLECULE
*****
 29 32 0 0 0
SMALL
GASTEIGER

@<TRIPOS>ATOM
      1 C         143.3157  142.4102  163.2908 C.ar    1  UNL1        0.0764
      2 C         143.7991  142.4407  161.8712 C.ar    1  UNL1        0.0176
      3 C         143.1166  143.3194  160.8653 C.ar    1  UNL1        0.0175
      4 C         141.9507  144.1677  161.2790 C.ar    1  UNL1        0.0705
      5 C         141.4673  144.1372  162.6986 C.ar    1  UNL1        0.0724
      6 N         142.1498  143.2584  163.7045 N.ar    1  UNL1       -0.2511
      7 C         140.3014  144.9854  163.1122 C.3     1  UNL1        0.0489
      8 C         139.6189  145.8642  162.1063 C.3     1  UNL1        0.0283
      9 C         140.1023  145.8947  160.6866 C.3     1  UNL1        0.1020
     10 N         141.2682  145.0465  160.2730 N.am    1  UNL1       -0.2239
     11 C         141.7516  145.0770  158.8533 C.2     1  UNL1        0.4086
     12 O         142.9176  144.2288  158.4397 O.2     1  UNL1       -0.2258
     13 C         145.2741  140.8297  163.9367 C.3     1  UNL1        0.0278
     14 C         143.9982  141.5314  164.2968 C.3     1  UNL1        0.1121
     15 N         143.4047  141.3543  165.6630 N.am    1  UNL1       -0.2973
     16 C         142.3398  140.3226  165.8902 C.2     1  UNL1        0.2461
     17 O         141.8684  139.4680  164.7511 O.2     1  UNL1       -0.2701
     18 H         143.7142  141.9152  166.4106 H       1  UNL1        0.1500
     19 C         141.7464  140.1455  167.2563 C.ar    1  UNL1        0.0535
     20 C         140.3039  140.4796  167.4965 C.ar    1  UNL1        0.0068
     21 C         139.7104  140.3025  168.8627 C.ar    1  UNL1        0.0298
     22 C         140.5595  139.7913  169.9887 C.ar    1  UNL1        0.1401
     23 F         139.9660  139.6142  171.3549 F       1  UNL1       -0.2042
     24 C         142.0019  139.4572  169.7485 C.ar    1  UNL1        0.0298
     25 C         142.5953  139.6343  168.3823 C.ar    1  UNL1        0.0068
     26 O         141.0692  145.9558  157.8473 O.3     1  UNL1       -0.4381
     27 C         140.2072  145.3466  156.7816 C.3     1  UNL1        0.1707
     28 C         139.1012  145.4720  155.7760 C.3     1  UNL1        0.0474
     29 C         139.8201  144.1659  155.9413 C.3     1  UNL1        0.0474
@<TRIPOS>BOND
     1    14    13    1
     2    14    15    1
     3    15    16   am
     4    16    17    2
     5    16    19    1
     6    19    20   ar
     7    20    21   ar
     8    21    22   ar
     9    22    23    1
    10    22    24   ar
    11    24    25   ar
    12    14     1    1
    13     1     2   ar
    14     2     3   ar
    15     3     4   ar
    16     4     5   ar
    17     5     6   ar
    18     5     7    1
    19     7     8    1
    20     8     9    1
    21     9    10    1
    22    10    11   am
    23    11    12    2
    24    11    26    1
    25    26    27    1
    26    27    28    1
    27    28    29    1
    28    25    19   ar
    29     6     1   ar
    30    29    27    1
    31    10     4    1
    32    15    18    1
@<TRIPOS>MOLECULE
*****
 29 32 0 0 0
SMALL
GASTEIGER

@<TRIPOS>ATOM
      1 C         140.0841  139.3137  158.0326 C.ar    1  UNL1        0.0764
      2 C         139.7280  140.7674  158.1323 C.ar    1  UNL1        0.0176
      3 C         139.1472  141.3118  159.4035 C.ar    1  UNL1        0.0175
      4 C         138.9223  140.4024  160.5751 C.ar    1  UNL1        0.0705
      5 C         139.2783  138.9488  160.4754 C.ar    1  UNL1        0.0724
      6 N         139.8592  138.4044  159.2041 N.ar    1  UNL1       -0.2511
      7 C         139.0535  138.0394  161.6470 C.3     1  UNL1        0.0489
      8 C         138.4726  138.5838  162.9183 C.3     1  UNL1        0.0283
      9 C         138.1165  140.0376  163.0180 C.3     1  UNL1        0.1020
     10 N         138.3414  140.9469  161.8464 N.am    1  UNL1       -0.2239
     11 C         137.9854  142.4006  161.9462 C.2     1  UNL1        0.4086
     12 O         138.2102  143.3099  160.7746 O.2     1  UNL1       -0.2258
     13 C         141.0955  139.7061  155.6718 C.3     1  UNL1        0.0278
     14 C         140.6650  138.7693  156.7612 C.3     1  UNL1        0.1121
     15 N         140.8153  137.2879  156.5794 N.am    1  UNL1       -0.2973
     16 C         142.1751  136.6582  156.6465 C.2     1  UNL1        0.2461
     17 O         143.3846  137.5099  156.8955 O.2     1  UNL1       -0.2701
     18 H         140.0215  136.7290  156.4160 H       1  UNL1        0.1500
     19 C         142.3254  135.1769  156.4647 C.ar    1  UNL1        0.0535
     20 C         141.5203  134.4641  155.4188 C.ar    1  UNL1        0.0068
     21 C         141.6706  132.9828  155.2370 C.ar    1  UNL1        0.0298
     22 C         142.6261  132.2143  156.1010 C.ar    1  UNL1        0.1401
     23 F         142.7764  130.7329  155.9192 F       1  UNL1       -0.2042
     24 C         143.4311  132.9270  157.1469 C.ar    1  UNL1        0.0298
     25 C         143.2808  134.4084  157.3287 C.ar    1  UNL1        0.0068
     26 O         137.4044  142.9450  163.2175 O.3     1  UNL1       -0.4381
     27 C         138.1996  143.9010  164.0564 C.3     1  UNL1        0.1707
     28 C         138.3487  144.7206  165.3037 C.3     1  UNL1        0.0474
     29 C         139.4279  144.7371  164.2621 C.3     1  UNL1        0.0474
@<TRIPOS>BOND
     1    14    13    1
     2    14    15    1
     3    15    16   am
     4    16    17    2
     5    16    19    1
     6    19    20   ar
     7    20    21   ar
     8    21    22   ar
     9    22    23    1
    10    22    24   ar
    11    24    25   ar
    12    14     1    1
    13     1     2   ar
    14     2     3   ar
    15     3     4   ar
    16     4     5   ar
    17     5     6   ar
    18     5     7    1
    19     7     8    1
    20     8     9    1
    21     9    10    1
    22    10    11   am
    23    11    12    2
    24    11    26    1
    25    26    27    1
    26    27    28    1
    27    28    29    1
    28    25    19   ar
    29     6     1   ar
    30    29    27    1
    31    10     4    1
    32    15    18    1
@<TRIPOS>MOLECULE
*****
 29 32 0 0 0
SMALL
GASTEIGER

@<TRIPOS>ATOM
      1 C         140.0077  144.5102  158.3239 C.ar    1  UNL1        0.0764
      2 C         139.2202  143.2424  158.4733 C.ar    1  UNL1        0.0176
      3 C         138.7801  142.7889  159.8337 C.ar    1  UNL1        0.0175
      4 C         139.1276  143.6032  161.0445 C.ar    1  UNL1        0.0705
      5 C         139.9150  144.8710  160.8951 C.ar    1  UNL1        0.0724
      6 N         140.3551  145.3246  159.5347 N.ar    1  UNL1       -0.2511
      7 C         140.2625  145.6853  162.1059 C.3     1  UNL1        0.0489
      8 C         139.8224  145.2318  163.4663 C.3     1  UNL1        0.0283
      9 C         139.0348  143.9639  163.6158 C.3     1  UNL1        0.1020
     10 N         138.6874  143.1496  162.4050 N.am    1  UNL1       -0.2239
     11 C         137.8999  141.8818  162.5544 C.2     1  UNL1        0.4086
     12 O         137.5525  141.0675  161.3436 O.2     1  UNL1       -0.2258
     13 C         140.9661  143.9654  155.9712 C.3     1  UNL1        0.0278
     14 C         140.4479  144.9638  156.9635 C.3     1  UNL1        0.1121
     15 N         140.3697  146.4159  156.5954 N.am    1  UNL1       -0.2973
     16 C         139.2247  146.9192  155.7675 C.2     1  UNL1        0.2461
     17 O         138.1576  145.9704  155.3077 O.2     1  UNL1       -0.2701
     18 H         141.0700  147.0386  156.8971 H       1  UNL1        0.1500
     19 C         139.1465  148.3712  155.3994 C.ar    1  UNL1        0.0535
     20 C         139.7184  148.8465  154.0966 C.ar    1  UNL1        0.0068
     21 C         139.6403  150.2985  153.7285 C.ar    1  UNL1        0.0298
     22 C         138.9903  151.2753  154.6632 C.ar    1  UNL1        0.1401
     23 F         138.9122  152.7273  154.2951 F       1  UNL1       -0.2042
     24 C         138.4185  150.8000  155.9659 C.ar    1  UNL1        0.0298
     25 C         138.4966  149.3479  156.3340 C.ar    1  UNL1        0.0068
     26 O         137.4598  141.4282  163.9148 O.3     1  UNL1       -0.4381
     27 C         138.0963  140.2260  164.5469 C.3     1  UNL1        0.1707
     28 C         138.9198  138.9780  164.4268 C.3     1  UNL1        0.0474
     29 C         138.3754  139.3917  165.7618 C.3     1  UNL1        0.0474
@<TRIPOS>BOND
     1    14    13    1
     2    14    15    1
     3    15    16   am
     4    16    17    2
     5    16    19    1
     6    19    20   ar
     7    20    21   ar
     8    21    22   ar
     9    22    23    1
    10    22    24   ar
    11    24    25   ar
    12    14     1    1
    13     1     2   ar
    14     2     3   ar
    15     3     4   ar
    16     4     5   ar
    17     5     6   ar
    18     5     7    1
    19     7     8    1
    20     8     9    1
    21     9    10    1
    22    10    11   am
    23    11    12    2
    24    11    26    1
    25    26    27    1
    26    27    28    1
    27    28    29    1
    28    25    19   ar
    29     6     1   ar
    30    29    27    1
    31    10     4    1
    32    15    18    1
@<TRIPOS>MOLECULE
*****
 29 32 0 0 0
SMALL
GASTEIGER

@<TRIPOS>ATOM
      1 C         140.1384  144.2149  163.7528 C.ar    1  UNL1        0.0764
      2 C         139.4525  145.1358  162.7877 C.ar    1  UNL1        0.0176
      3 C         139.9321  145.2281  161.3694 C.ar    1  UNL1        0.0175
      4 C         141.0974  144.3995  160.9162 C.ar    1  UNL1        0.0705
      5 C         141.7832  143.4785  161.8813 C.ar    1  UNL1        0.0724
      6 N         141.3037  143.3862  163.2996 N.ar    1  UNL1       -0.2511
      7 C         142.9485  142.6499  161.4282 C.3     1  UNL1        0.0489
      8 C         143.4280  142.7422  160.0099 C.3     1  UNL1        0.0283
      9 C         142.7422  143.6632  159.0447 C.3     1  UNL1        0.1020
     10 N         141.5769  144.4918  159.4979 N.am    1  UNL1       -0.2239
     11 C         140.8911  145.4128  158.5328 C.2     1  UNL1        0.4086
     12 O         139.7258  146.2414  158.9860 O.2     1  UNL1       -0.2258
     13 C         138.4541  144.9021  165.6078 C.3     1  UNL1        0.0278
     14 C         139.6588  144.1225  165.1711 C.3     1  UNL1        0.1121
     15 N         140.3841  143.2505  166.1527 N.am    1  UNL1       -0.2973
     16 C         139.9729  141.8191  166.3311 C.2     1  UNL1        0.2461
     17 O         138.8362  141.2596  165.5279 O.2     1  UNL1       -0.2701
     18 H         141.1301  143.6177  166.6799 H       1  UNL1        0.1500
     19 C         140.6982  140.9471  167.3127 C.ar    1  UNL1        0.0535
     20 C         141.9851  140.2844  166.9192 C.ar    1  UNL1        0.0068
     21 C         142.7104  139.4125  167.9008 C.ar    1  UNL1        0.0298
     22 C         142.1488  139.2032  169.2760 C.ar    1  UNL1        0.1401
     23 F         142.8741  138.3312  170.2576 F       1  UNL1       -0.2042
     24 C         140.8619  139.8658  169.6694 C.ar    1  UNL1        0.0298
     25 C         140.1366  140.7378  168.6878 C.ar    1  UNL1        0.0068
     26 O         141.3706  145.5051  157.1145 O.3     1  UNL1       -0.4381
     27 C         140.5098  146.1559  156.0726 C.3     1  UNL1        0.1707
     28 C         139.1507  146.5187  155.5520 C.3     1  UNL1        0.0474
     29 C         140.3779  146.9201  154.7887 C.3     1  UNL1        0.0474
@<TRIPOS>BOND
     1    14    13    1
     2    14    15    1
     3    15    16   am
     4    16    17    2
     5    16    19    1
     6    19    20   ar
     7    20    21   ar
     8    21    22   ar
     9    22    23    1
    10    22    24   ar
    11    24    25   ar
    12    14     1    1
    13     1     2   ar
    14     2     3   ar
    15     3     4   ar
    16     4     5   ar
    17     5     6   ar
    18     5     7    1
    19     7     8    1
    20     8     9    1
    21     9    10    1
    22    10    11   am
    23    11    12    2
    24    11    26    1
    25    26    27    1
    26    27    28    1
    27    28    29    1
    28    25    19   ar
    29     6     1   ar
    30    29    27    1
    31    10     4    1
    32    15    18    1
@<TRIPOS>MOLECULE
*****
 29 32 0 0 0
SMALL
GASTEIGER

@<TRIPOS>ATOM
      1 C         142.7075  138.5263  157.8380 C.ar    1  UNL1        0.0764
      2 C         142.8617  140.0011  157.6116 C.ar    1  UNL1        0.0176
      3 C         143.3464  140.8838  158.7233 C.ar    1  UNL1        0.0175
      4 C         143.6769  140.2918  160.0613 C.ar    1  UNL1        0.0705
      5 C         143.5228  138.8170  160.2876 C.ar    1  UNL1        0.0724
      6 N         143.0381  137.9343  159.1760 N.ar    1  UNL1       -0.2511
      7 C         143.8534  138.2250  161.6256 C.3     1  UNL1        0.0489
      8 C         144.3381  139.1077  162.7372 C.3     1  UNL1        0.0283
      9 C         144.4923  140.5825  162.5109 C.3     1  UNL1        0.1020
     10 N         144.1617  141.1746  161.1729 N.am    1  UNL1       -0.2239
     11 C         144.3159  142.6493  160.9466 C.2     1  UNL1        0.4086
     12 O         143.9853  143.2414  159.6086 O.2     1  UNL1       -0.2258
     13 C         141.7436  138.2506  155.4411 C.3     1  UNL1        0.0278
     14 C         142.2227  137.6435  156.7263 C.3     1  UNL1        0.1121
     15 N         142.2172  136.1536  156.8999 N.am    1  UNL1       -0.2973
     16 C         143.3043  135.3229  156.2850 C.2     1  UNL1        0.2461
     17 O         144.3970  135.9820  155.4966 O.2     1  UNL1       -0.2701
     18 H         141.5001  135.7210  157.4174 H       1  UNL1        0.1500
     19 C         143.2988  133.8330  156.4586 C.ar    1  UNL1        0.0535
     20 C         142.2485  133.0029  155.7818 C.ar    1  UNL1        0.0068
     21 C         142.2430  131.5130  155.9554 C.ar    1  UNL1        0.0298
     22 C         143.2877  130.8531  156.8058 C.ar    1  UNL1        0.1401
     23 F         143.2822  129.3632  156.9794 F       1  UNL1       -0.2042
     24 C         144.3379  131.6832  157.4826 C.ar    1  UNL1        0.0298
     25 C         144.3435  133.1731  157.3090 C.ar    1  UNL1        0.0068
     26 O         144.8006  143.5321  162.0583 O.3     1  UNL1       -0.4381
     27 C         143.8175  144.3138  162.8782 C.3     1  UNL1        0.1707
     28 C         142.4380  144.8711  163.0693 C.3     1  UNL1        0.0474
     29 C         143.4940  145.1105  164.1073 C.3     1  UNL1        0.0474
@<TRIPOS>BOND
     1    14    13    1
     2    14    15    1
     3    15    16   am
     4    16    17    2
     5    16    19    1
     6    19    20   ar
     7    20    21   ar
     8    21    22   ar
     9    22    23    1
    10    22    24   ar
    11    24    25   ar
    12    14     1    1
    13     1     2   ar
    14     2     3   ar
    15     3     4   ar
    16     4     5   ar
    17     5     6   ar
    18     5     7    1
    19     7     8    1
    20     8     9    1
    21     9    10    1
    22    10    11   am
    23    11    12    2
    24    11    26    1
    25    26    27    1
    26    27    28    1
    27    28    29    1
    28    25    19   ar
    29     6     1   ar
    30    29    27    1
    31    10     4    1
    32    15    18    1
@<TRIPOS>MOLECULE
*****
 29 32 0 0 0
SMALL
GASTEIGER

@<TRIPOS>ATOM
      1 C         139.4795  138.8444  164.9402 C.ar    1  UNL1        0.0764
      2 C         140.8719  138.3818  164.6284 C.ar    1  UNL1        0.0176
      3 C         141.3230  138.2691  163.2024 C.ar    1  UNL1        0.0175
      4 C         140.3818  138.6189  162.0881 C.ar    1  UNL1        0.0705
      5 C         138.9894  139.0815  162.3998 C.ar    1  UNL1        0.0724
      6 N         138.5382  139.1942  163.8259 N.ar    1  UNL1       -0.2511
      7 C         138.0481  139.4313  161.2855 C.3     1  UNL1        0.0489
      8 C         138.4993  139.3186  159.8595 C.3     1  UNL1        0.0283
      9 C         139.8918  138.8560  159.5476 C.3     1  UNL1        0.1020
     10 N         140.8330  138.5062  160.6619 N.am    1  UNL1       -0.2239
     11 C         142.2254  138.0436  160.3502 C.2     1  UNL1        0.4086
     12 O         143.1666  137.6938  161.4645 O.2     1  UNL1       -0.2258
     13 C         137.7165  138.3636  166.7871 C.3     1  UNL1        0.0278
     14 C         139.0283  138.9571  166.3663 C.3     1  UNL1        0.1121
     15 N         139.8889  139.6633  167.3716 N.am    1  UNL1       -0.2973
     16 C         140.1645  141.1303  167.2242 C.2     1  UNL1        0.2461
     17 O         139.5796  141.8912  166.0714 O.2     1  UNL1       -0.2701
     18 H         140.2728  139.1639  168.1282 H       1  UNL1        0.1500
     19 C         141.0251  141.8365  168.2295 C.ar    1  UNL1        0.0535
     20 C         140.4446  142.9286  169.0783 C.ar    1  UNL1        0.0068
     21 C         141.3052  143.6348  170.0836 C.ar    1  UNL1        0.0298
     22 C         142.7463  143.2489  170.2401 C.ar    1  UNL1        0.1401
     23 F         143.6069  143.9551  171.2454 F       1  UNL1       -0.2042
     24 C         143.3267  142.1569  169.3913 C.ar    1  UNL1        0.0298
     25 C         142.4661  141.4507  168.3860 C.ar    1  UNL1        0.0068
     26 O         142.6766  137.9309  158.9240 O.3     1  UNL1       -0.4381
     27 C         142.9970  139.1681  158.1387 C.3     1  UNL1        0.1707
     28 C         143.6951  139.8327  156.9895 C.3     1  UNL1        0.0474
     29 C         142.8538  140.6462  157.9278 C.3     1  UNL1        0.0474
@<TRIPOS>BOND
     1    14    13    1
     2    14    15    1
     3    15    16   am
     4    16    17    2
     5    16    19    1
     6    19    20   ar
     7    20    21   ar
     8    21    22   ar
     9    22    23    1
    10    22    24   ar
    11    24    25   ar
    12    14     1    1
    13     1     2   ar
    14     2     3   ar
    15     3     4   ar
    16     4     5   ar
    17     5     6   ar
    18     5     7    1
    19     7     8    1
    20     8     9    1
    21     9    10    1
    22    10    11   am
    23    11    12    2
    24    11    26    1
    25    26    27    1
    26    27    28    1
    27    28    29    1
    28    25    19   ar
    29     6     1   ar
    30    29    27    1
    31    10     4    1
    32    15    18    1
@<TRIPOS>MOLECULE
*****
 29 32 0 0 0
SMALL
GASTEIGER

@<TRIPOS>ATOM
      1 C         142.6999  138.5781  159.9146 C.ar    1  UNL1        0.0764
      2 C         143.8742  138.8809  160.7973 C.ar    1  UNL1        0.0176
      3 C         143.7324  138.7991  162.2883 C.ar    1  UNL1        0.0175
      4 C         142.4163  138.4145  162.8966 C.ar    1  UNL1        0.0705
      5 C         141.2420  138.1116  162.0139 C.ar    1  UNL1        0.0724
      6 N         141.3838  138.1934  160.5229 N.ar    1  UNL1       -0.2511
      7 C         139.9260  137.7270  162.6221 C.3     1  UNL1        0.0489
      8 C         139.7842  137.6452  164.1132 C.3     1  UNL1        0.0283
      9 C         140.9585  137.9481  164.9960 C.3     1  UNL1        0.1020
     10 N         142.2746  138.3327  164.3877 N.am    1  UNL1       -0.2239
     11 C         143.4489  138.6356  165.2704 C.2     1  UNL1        0.4086
     12 O         144.7650  139.0202  164.6622 O.2     1  UNL1       -0.2258
     13 C         142.6975  139.9808  157.7277 C.3     1  UNL1        0.0278
     14 C         142.8417  138.6598  158.4235 C.3     1  UNL1        0.1121
     15 N         143.1275  137.4206  157.6282 N.am    1  UNL1       -0.2973
     16 C         142.0139  136.7149  156.9129 C.2     1  UNL1        0.2461
     17 O         140.6142  137.2485  156.9928 O.2     1  UNL1       -0.2701
     18 H         144.0461  137.0703  157.5758 H       1  UNL1        0.1500
     19 C         142.2998  135.4756  156.1176 C.ar    1  UNL1        0.0535
     20 C         143.4754  134.6131  156.4698 C.ar    1  UNL1        0.0068
     21 C         143.7613  133.3738  155.6745 C.ar    1  UNL1        0.0298
     22 C         142.8715  132.9971  154.5271 C.ar    1  UNL1        0.1401
     23 F         143.1574  131.7578  153.7318 F       1  UNL1       -0.2042
     24 C         141.6960  133.8596  154.1750 C.ar    1  UNL1        0.0298
     25 C         141.4101  135.0989  154.9702 C.ar    1  UNL1        0.0068
     26 O         143.3071  138.5538  166.7615 O.3     1  UNL1       -0.4381
     27 C         142.8317  139.7469  167.5363 C.3     1  UNL1        0.1707
     28 C         142.3202  140.3479  168.8119 C.3     1  UNL1        0.0474
     29 C         142.5197  141.2126  167.6026 C.3     1  UNL1        0.0474
@<TRIPOS>BOND
     1    14    13    1
     2    14    15    1
     3    15    16   am
     4    16    17    2
     5    16    19    1
     6    19    20   ar
     7    20    21   ar
     8    21    22   ar
     9    22    23    1
    10    22    24   ar
    11    24    25   ar
    12    14     1    1
    13     1     2   ar
    14     2     3   ar
    15     3     4   ar
    16     4     5   ar
    17     5     6   ar
    18     5     7    1
    19     7     8    1
    20     8     9    1
    21     9    10    1
    22    10    11   am
    23    11    12    2
    24    11    26    1
    25    26    27    1
    26    27    28    1
    27    28    29    1
    28    25    19   ar
    29     6     1   ar
    30    29    27    1
    31    10     4    1
    32    15    18    1
@<TRIPOS>MOLECULE
*****
 29 32 0 0 0
SMALL
GASTEIGER

@<TRIPOS>ATOM
      1 C         143.9323  142.0544  158.7411 C.ar    1  UNL1        0.0764
      2 C         142.4976  142.4120  158.4886 C.ar    1  UNL1        0.0176
      3 C         141.7258  143.1863  159.5155 C.ar    1  UNL1        0.0175
      4 C         142.3886  143.6030  160.7950 C.ar    1  UNL1        0.0705
      5 C         143.8233  143.2454  161.0475 C.ar    1  UNL1        0.0724
      6 N         144.5951  142.4711  160.0205 N.ar    1  UNL1       -0.2511
      7 C         144.4861  143.6622  162.3269 C.3     1  UNL1        0.0489
      8 C         143.7143  144.4365  163.3539 C.3     1  UNL1        0.0283
      9 C         142.2795  144.7941  163.1014 C.3     1  UNL1        0.1020
     10 N         141.6167  144.3774  161.8220 N.am    1  UNL1       -0.2239
     11 C         140.1820  144.7350  161.5694 C.2     1  UNL1        0.4086
     12 O         139.5192  144.3183  160.2900 O.2     1  UNL1       -0.2258
     13 C         145.7972  141.9498  156.9352 C.3     1  UNL1        0.0278
     14 C         144.7042  141.2801  157.7141 C.3     1  UNL1        0.1121
     15 N         144.3831  139.8360  157.4661 N.am    1  UNL1       -0.2973
     16 C         143.4575  139.4547  156.3491 C.2     1  UNL1        0.2461
     17 O         142.8530  140.5174  155.4799 O.2     1  UNL1       -0.2701
     18 H         144.7798  139.1385  158.0365 H       1  UNL1        0.1500
     19 C         143.1363  138.0106  156.1010 C.ar    1  UNL1        0.0535
     20 C         141.7438  137.5019  156.3298 C.ar    1  UNL1        0.0068
     21 C         141.4226  136.0579  156.0818 C.ar    1  UNL1        0.0298
     22 C         142.4940  135.1224  155.6050 C.ar    1  UNL1        0.1401
     23 F         142.1728  133.6784  155.3570 F       1  UNL1       -0.2042
     24 C         143.8864  135.6311  155.3763 C.ar    1  UNL1        0.0298
     25 C         144.2076  137.0752  155.6243 C.ar    1  UNL1        0.0068
     26 O         139.4101  145.5093  162.5964 O.3     1  UNL1       -0.4381
     27 C         138.9186  144.8258  163.8378 C.3     1  UNL1        0.1707
     28 C         137.8284  144.1169  164.5855 C.3     1  UNL1        0.0474
     29 C         139.1574  144.3508  165.2404 C.3     1  UNL1        0.0474
@<TRIPOS>BOND
     1    14    13    1
     2    14    15    1
     3    15    16   am
     4    16    17    2
     5    16    19    1
     6    19    20   ar
     7    20    21   ar
     8    21    22   ar
     9    22    23    1
    10    22    24   ar
    11    24    25   ar
    12    14     1    1
    13     1     2   ar
    14     2     3   ar
    15     3     4   ar
    16     4     5   ar
    17     5     6   ar
    18     5     7    1
    19     7     8    1
    20     8     9    1
    21     9    10    1
    22    10    11   am
    23    11    12    2
    24    11    26    1
    25    26    27    1
    26    27    28    1
    27    28    29    1
    28    25    19   ar
    29     6     1   ar
    30    29    27    1
    31    10     4    1
    32    15    18    1
