@<TRIPOS>MOLECULE
*****
 35 40 0 0 0
SMALL
GASTEIGER

@<TRIPOS>ATOM
      1 S         140.3276  144.4106  159.1133 S.3     1  UNL1       -0.0742
      2 C         139.7152  141.0657  160.9845 C.ar    1  UNL1        0.1669
      3 N         138.3099  141.4785  160.6614 N.ar    1  UNL1       -0.1282
      4 N         138.3681  142.7818  159.9211 N.ar    1  UNL1       -0.1221
      5 C         139.8096  143.1745  159.7867 C.ar    1  UNL1        0.1933
      6 N         140.6422  142.1138  160.4439 N.ar    1  UNL1       -0.2884
      7 C         142.1388  142.1032  160.5432 C.3     1  UNL1        0.1340
      8 C         137.8323  138.6575  167.1412 C.3     1  UNL1        0.0521
      9 C         138.4048  138.9489  165.7857 C.ar    1  UNL1        0.0593
     10 C         137.9977  140.1917  165.0510 C.ar    1  UNL1        0.0147
     11 C         138.5703  140.4830  163.6955 C.ar    1  UNL1        0.0028
     12 C         139.5498  139.5315  163.0747 C.ar    1  UNL1        0.0206
     13 C         140.1223  139.8229  161.7193 C.ar    1  UNL1        0.0374
     14 C         141.1018  138.8715  161.0985 C.ar    1  UNL1        0.0031
     15 C         141.5088  137.6287  161.8332 C.ar    1  UNL1        0.0016
     16 C         140.9363  137.3374  163.1887 C.ar    1  UNL1        0.0191
     17 C         139.9568  138.2888  163.8095 C.ar    1  UNL1        0.0810
     18 N         139.3843  137.9974  165.1650 N.ar    1  UNL1       -0.2497
     19 C         140.7815  145.5792  159.9371 C.3     1  UNL1        0.0824
     20 C         140.1003  145.8903  161.2368 C.3     1  UNL1        0.0843
     21 N         140.4418  145.1061  162.4690 N.3     1  UNL1       -0.2713
     22 C         139.2905  144.7840  163.3752 C.3     1  UNL1        0.0768
     23 C         139.3025  144.0239  164.6683 C.3     1  UNL1        0.0434
     24 C         140.4685  143.3982  165.3746 C.ar    1  UNL1       -0.0230
     25 C         140.0431  142.7291  166.6480 C.ar    1  UNL1        0.0178
     26 C         141.0597  142.0399  167.5090 C.ar    1  UNL1        0.1182
     27 N         140.9388  141.3003  168.8083 N.ar    1  UNL1       -0.2121
     28 C         142.3061  140.8230  169.1990 C.ar    1  UNL1        0.2062
     29 C         142.6475  140.0387  170.4313 C.3     1  UNL1        0.0950
     30 O         143.2721  141.2676  168.1411 O.2     1  UNL1       -0.4384
     31 C         142.5018  142.0196  167.0967 C.ar    1  UNL1        0.1640
     32 C         142.9272  142.6887  165.8233 C.ar    1  UNL1        0.0346
     33 C         141.9106  143.3780  164.9623 C.ar    1  UNL1       -0.0216
     34 C         142.5428  143.9785  163.7418 C.3     1  UNL1        0.0434
     35 C         141.8890  144.7476  162.6322 C.3     1  UNL1        0.0768
@<TRIPOS>BOND
     1     8     9    1
     2     9    10   ar
     3    10    11   ar
     4    11    12   ar
     5    12    13   ar
     6    13     2    1
     7     2     3   ar
     8     3     4   ar
     9     4     5   ar
    10     5     1    1
    11     1    19    1
    12    19    20    1
    13    20    21    1
    14    21    22    1
    15    22    23    1
    16    23    24    1
    17    24    25   ar
    18    25    26   ar
    19    26    27   ar
    20    27    28   ar
    21    28    29    1
    22    28    30   ar
    23    30    31   ar
    24    31    32   ar
    25    32    33   ar
    26    33    34    1
    27    34    35    1
    28     5     6   ar
    29     6     7    1
    30    13    14   ar
    31    14    15   ar
    32    15    16   ar
    33    16    17   ar
    34    17    18   ar
    35    18     9   ar
    36    17    12   ar
    37     6     2   ar
    38    35    21    1
    39    33    24   ar
    40    31    26   ar
@<TRIPOS>MOLECULE
*****
 35 40 0 0 0
SMALL
GASTEIGER

@<TRIPOS>ATOM
      1 S         140.0360  144.0223  158.9081 S.3     1  UNL1       -0.0742
      2 C         140.4280  140.6330  160.7586 C.ar    1  UNL1        0.1669
      3 N         141.6140  140.6011  159.8408 N.ar    1  UNL1       -0.1282
      4 N         141.6116  141.8668  159.0359 N.ar    1  UNL1       -0.1221
      5 C         140.4240  142.6811  159.4562 C.ar    1  UNL1        0.1933
      6 N         139.6925  141.9186  160.5209 N.ar    1  UNL1       -0.2884
      7 C         138.4447  142.3634  161.2244 C.3     1  UNL1        0.1340
      8 C         143.7210  138.2149  166.2866 C.3     1  UNL1        0.0521
      9 C         142.8020  138.5529  165.1503 C.ar    1  UNL1        0.0593
     10 C         143.1853  139.6192  164.1674 C.ar    1  UNL1        0.0147
     11 C         142.2661  139.9571  163.0311 C.ar    1  UNL1        0.0028
     12 C         140.9638  139.2288  162.8777 C.ar    1  UNL1        0.0206
     13 C         140.0448  139.5667  161.7415 C.ar    1  UNL1        0.0374
     14 C         138.7425  138.8384  161.5881 C.ar    1  UNL1        0.0031
     15 C         138.3593  137.7721  162.5710 C.ar    1  UNL1        0.0016
     16 C         139.2783  137.4341  163.7073 C.ar    1  UNL1        0.0191
     17 C         140.5806  138.1625  163.8607 C.ar    1  UNL1        0.0810
     18 N         141.4997  137.8245  164.9970 N.ar    1  UNL1       -0.2497
     19 C         140.6853  145.2660  159.4392 C.3     1  UNL1        0.0824
     20 C         140.2227  145.8577  160.7375 C.3     1  UNL1        0.0843
     21 N         140.4960  145.1425  162.0274 N.3     1  UNL1       -0.2713
     22 C         141.8798  144.5842  162.1814 C.3     1  UNL1        0.0768
     23 C         142.4587  143.8256  163.3388 C.3     1  UNL1        0.0434
     24 C         141.7970  143.4381  164.6278 C.ar    1  UNL1       -0.0230
     25 C         142.7358  142.6811  165.5198 C.ar    1  UNL1        0.0178
     26 C         142.2705  142.1993  166.8620 C.ar    1  UNL1        0.1182
     27 N         142.9643  141.4340  167.9496 N.ar    1  UNL1       -0.2121
     28 C         141.9890  141.2363  169.0719 C.ar    1  UNL1        0.2062
     29 C         142.2624  140.5210  170.3618 C.3     1  UNL1        0.0950
     30 O         140.6924  141.8793  168.6780 O.2     1  UNL1       -0.4384
     31 C         140.8663  142.4744  167.3122 C.ar    1  UNL1        0.1640
     32 C         139.9275  143.2315  166.4202 C.ar    1  UNL1        0.0346
     33 C         140.3928  143.7133  165.0781 C.ar    1  UNL1       -0.0216
     34 C         139.3036  144.4441  164.3503 C.3     1  UNL1        0.0434
     35 C         139.3496  145.0801  162.9926 C.3     1  UNL1        0.0768
@<TRIPOS>BOND
     1     8     9    1
     2     9    10   ar
     3    10    11   ar
     4    11    12   ar
     5    12    13   ar
     6    13     2    1
     7     2     3   ar
     8     3     4   ar
     9     4     5   ar
    10     5     1    1
    11     1    19    1
    12    19    20    1
    13    20    21    1
    14    21    22    1
    15    22    23    1
    16    23    24    1
    17    24    25   ar
    18    25    26   ar
    19    26    27   ar
    20    27    28   ar
    21    28    29    1
    22    28    30   ar
    23    30    31   ar
    24    31    32   ar
    25    32    33   ar
    26    33    34    1
    27    34    35    1
    28     5     6   ar
    29     6     7    1
    30    13    14   ar
    31    14    15   ar
    32    15    16   ar
    33    16    17   ar
    34    17    18   ar
    35    18     9   ar
    36    17    12   ar
    37     6     2   ar
    38    35    21    1
    39    33    24   ar
    40    31    26   ar
@<TRIPOS>MOLECULE
*****
 35 40 0 0 0
SMALL
GASTEIGER

@<TRIPOS>ATOM
      1 S         142.9862  139.4981  158.1041 S.3     1  UNL1       -0.0742
      2 C         142.3054  142.7426  160.1228 C.ar    1  UNL1        0.1669
      3 N         143.8047  142.7380  160.0785 N.ar    1  UNL1       -0.1282
      4 N         144.2423  141.5221  159.3170 N.ar    1  UNL1       -0.1221
      5 C         143.0134  140.7751  158.8905 C.ar    1  UNL1        0.1933
      6 N         141.8163  141.5294  159.3885 N.ar    1  UNL1       -0.2884
      7 C         140.3820  141.1391  159.1876 C.3     1  UNL1        0.1340
      8 C         140.0779  143.2670  166.6046 C.3     1  UNL1        0.0521
      9 C         140.4199  143.3948  165.1497 C.ar    1  UNL1        0.0593
     10 C         141.2793  142.3590  164.4874 C.ar    1  UNL1        0.0147
     11 C         141.6213  142.4869  163.0325 C.ar    1  UNL1        0.0028
     12 C         141.1040  143.6505  162.2399 C.ar    1  UNL1        0.0206
     13 C         141.4460  143.7784  160.7851 C.ar    1  UNL1        0.0374
     14 C         140.9286  144.9420  159.9923 C.ar    1  UNL1        0.0031
     15 C         140.0693  145.9778  160.6546 C.ar    1  UNL1        0.0016
     16 C         139.7272  145.8499  162.1095 C.ar    1  UNL1        0.0191
     17 C         140.2446  144.6863  162.9022 C.ar    1  UNL1        0.0810
     18 N         139.9025  144.5585  164.3570 N.ar    1  UNL1       -0.2497
     19 C         142.3639  138.2672  158.6938 C.3     1  UNL1        0.0824
     20 C         142.9611  137.6373  159.9171 C.3     1  UNL1        0.0843
     21 N         142.4577  138.0170  161.2781 N.3     1  UNL1       -0.2713
     22 C         143.5124  138.3116  162.3033 C.3     1  UNL1        0.0768
     23 C         143.3360  138.7139  163.7376 C.3     1  UNL1        0.0434
     24 C         142.0615  138.9208  164.5008 C.ar    1  UNL1       -0.0230
     25 C         142.3320  139.3218  165.9208 C.ar    1  UNL1        0.0178
     26 C         141.1896  139.5785  166.8583 C.ar    1  UNL1        0.1182
     27 N         141.1474  139.9841  168.3017 N.ar    1  UNL1       -0.2121
     28 C         139.7084  140.0907  168.7115 C.ar    1  UNL1        0.2062
     29 C         139.2050  140.4704  170.0726 C.3     1  UNL1        0.0950
     30 O         138.8612  139.7509  167.5212 O.2     1  UNL1       -0.4384
     31 C         139.7765  139.4343  166.3759 C.ar    1  UNL1        0.1640
     32 C         139.5060  139.0334  164.9560 C.ar    1  UNL1        0.0346
     33 C         140.6485  138.7767  164.0185 C.ar    1  UNL1       -0.0216
     34 C         140.1611  138.3899  162.6536 C.3     1  UNL1        0.0434
     35 C         140.9663  138.0518  161.4341 C.3     1  UNL1        0.0768
@<TRIPOS>BOND
     1     8     9    1
     2     9    10   ar
     3    10    11   ar
     4    11    12   ar
     5    12    13   ar
     6    13     2    1
     7     2     3   ar
     8     3     4   ar
     9     4     5   ar
    10     5     1    1
    11     1    19    1
    12    19    20    1
    13    20    21    1
    14    21    22    1
    15    22    23    1
    16    23    24    1
    17    24    25   ar
    18    25    26   ar
    19    26    27   ar
    20    27    28   ar
    21    28    29    1
    22    28    30   ar
    23    30    31   ar
    24    31    32   ar
    25    32    33   ar
    26    33    34    1
    27    34    35    1
    28     5     6   ar
    29     6     7    1
    30    13    14   ar
    31    14    15   ar
    32    15    16   ar
    33    16    17   ar
    34    17    18   ar
    35    18     9   ar
    36    17    12   ar
    37     6     2   ar
    38    35    21    1
    39    33    24   ar
    40    31    26   ar
@<TRIPOS>MOLECULE
*****
 35 40 0 0 0
SMALL
GASTEIGER

@<TRIPOS>ATOM
      1 S         142.6241  138.3526  159.2175 S.3     1  UNL1       -0.0742
      2 C         140.5705  141.5254  160.1015 C.ar    1  UNL1        0.1669
      3 N         139.4750  140.5365  159.8333 N.ar    1  UNL1       -0.1282
      4 N         140.1109  139.2275  159.4695 N.ar    1  UNL1       -0.1221
      5 C         141.5995  139.4075  159.5128 C.ar    1  UNL1        0.1933
      6 N         141.8835  140.8276  159.9034 N.ar    1  UNL1       -0.2884
      7 C         143.2420  141.4421  160.0672 C.3     1  UNL1        0.1340
      8 C         139.1822  144.3635  166.2061 C.3     1  UNL1        0.0521
      9 C         139.4830  144.0127  164.7791 C.ar    1  UNL1        0.0593
     10 C         139.6680  142.5779  164.3825 C.ar    1  UNL1        0.0147
     11 C         139.9689  142.2271  162.9554 C.ar    1  UNL1        0.0028
     12 C         140.0847  143.3110  161.9250 C.ar    1  UNL1        0.0206
     13 C         140.3855  142.9602  160.4981 C.ar    1  UNL1        0.0374
     14 C         140.5014  144.0440  159.4676 C.ar    1  UNL1        0.0031
     15 C         140.3164  145.4787  159.8642 C.ar    1  UNL1        0.0016
     16 C         140.0155  145.8296  161.2913 C.ar    1  UNL1        0.0191
     17 C         139.8997  144.7457  162.3217 C.ar    1  UNL1        0.0810
     18 N         139.5989  145.0966  163.7487 N.ar    1  UNL1       -0.2497
     19 C         143.0711  137.4168  160.3014 C.3     1  UNL1        0.0824
     20 C         143.9963  137.9028  161.3774 C.3     1  UNL1        0.0843
     21 N         143.4397  138.5689  162.6007 N.3     1  UNL1       -0.2713
     22 C         142.1734  137.9767  163.1449 C.3     1  UNL1        0.0768
     23 C         141.3776  138.4085  164.3410 C.3     1  UNL1        0.0434
     24 C         141.6515  139.5389  165.2880 C.ar    1  UNL1       -0.0230
     25 C         140.6008  139.6267  166.3550 C.ar    1  UNL1        0.0178
     26 C         140.6873  140.6925  167.4069 C.ar    1  UNL1        0.1182
     27 N         139.8065  141.0237  168.5750 N.ar    1  UNL1       -0.2121
     28 C         140.3994  142.2063  169.2820 C.ar    1  UNL1        0.2062
     29 C         139.8427  142.8723  170.5053 C.3     1  UNL1        0.0950
     30 O         141.6467  142.6060  168.5509 O.2     1  UNL1       -0.4384
     31 C         141.8246  141.6704  167.3921 C.ar    1  UNL1        0.1640
     32 C         142.8754  141.5826  166.3251 C.ar    1  UNL1        0.0346
     33 C         142.7888  140.5168  165.2732 C.ar    1  UNL1       -0.0216
     34 C         143.9331  140.6059  164.3074 C.3     1  UNL1        0.0434
     35 C         144.2227  139.7389  163.1181 C.3     1  UNL1        0.0768
@<TRIPOS>BOND
     1     8     9    1
     2     9    10   ar
     3    10    11   ar
     4    11    12   ar
     5    12    13   ar
     6    13     2    1
     7     2     3   ar
     8     3     4   ar
     9     4     5   ar
    10     5     1    1
    11     1    19    1
    12    19    20    1
    13    20    21    1
    14    21    22    1
    15    22    23    1
    16    23    24    1
    17    24    25   ar
    18    25    26   ar
    19    26    27   ar
    20    27    28   ar
    21    28    29    1
    22    28    30   ar
    23    30    31   ar
    24    31    32   ar
    25    32    33   ar
    26    33    34    1
    27    34    35    1
    28     5     6   ar
    29     6     7    1
    30    13    14   ar
    31    14    15   ar
    32    15    16   ar
    33    16    17   ar
    34    17    18   ar
    35    18     9   ar
    36    17    12   ar
    37     6     2   ar
    38    35    21    1
    39    33    24   ar
    40    31    26   ar
@<TRIPOS>MOLECULE
*****
 35 40 0 0 0
SMALL
GASTEIGER

@<TRIPOS>ATOM
      1 S         138.9862  139.5995  166.6714 S.3     1  UNL1       -0.0742
      2 C         140.6880  142.3027  164.4664 C.ar    1  UNL1        0.1669
      3 N         139.2402  142.6503  164.2853 N.ar    1  UNL1       -0.1282
      4 N         138.4264  141.6800  165.0892 N.ar    1  UNL1       -0.1221
      5 C         139.3714  140.7327  165.7672 C.ar    1  UNL1        0.1933
      6 N         140.7691  141.1175  165.3823 N.ar    1  UNL1       -0.2884
      7 C         142.0271  140.4367  165.8339 C.3     1  UNL1        0.1340
      8 C         142.9793  142.3521  157.9858 C.3     1  UNL1        0.0521
      9 C         142.6971  142.5179  159.4497 C.ar    1  UNL1        0.0593
     10 C         141.5344  141.8054  160.0748 C.ar    1  UNL1        0.0147
     11 C         141.2523  141.9712  161.5387 C.ar    1  UNL1        0.0028
     12 C         142.1328  142.8493  162.3775 C.ar    1  UNL1        0.0206
     13 C         141.8507  143.0151  163.8413 C.ar    1  UNL1        0.0374
     14 C         142.7312  143.8932  164.6802 C.ar    1  UNL1        0.0031
     15 C         143.8938  144.6055  164.0550 C.ar    1  UNL1        0.0016
     16 C         144.1760  144.4398  162.5912 C.ar    1  UNL1        0.0191
     17 C         143.2955  143.5617  161.7524 C.ar    1  UNL1        0.0810
     18 N         143.5776  143.3960  160.2885 N.ar    1  UNL1       -0.2497
     19 C         138.1239  138.4866  166.1536 C.3     1  UNL1        0.0824
     20 C         138.7424  137.3482  165.3978 C.3     1  UNL1        0.0843
     21 N         139.3708  137.5912  164.0576 N.3     1  UNL1       -0.2713
     22 C         138.4198  137.8984  162.9390 C.3     1  UNL1        0.0768
     23 C         138.7302  138.1852  161.4997 C.3     1  UNL1        0.0434
     24 C         140.0682  138.2356  160.8237 C.ar    1  UNL1       -0.0230
     25 C         139.9333  138.5580  159.3649 C.ar    1  UNL1        0.0178
     26 C         141.1565  138.6565  158.5023 C.ar    1  UNL1        0.1182
     27 N         141.3345  138.9568  157.0435 N.ar    1  UNL1       -0.2121
     28 C         142.8026  138.9185  156.7381 C.ar    1  UNL1        0.2062
     29 C         143.4309  139.1616  155.3979 C.3     1  UNL1        0.0950
     30 O         143.5319  138.5946  158.0081 O.2     1  UNL1       -0.4384
     31 C         142.5147  138.4326  159.0984 C.ar    1  UNL1        0.1640
     32 C         142.6496  138.1102  160.5572 C.ar    1  UNL1        0.0346
     33 C         141.4263  138.0117  161.4198 C.ar    1  UNL1       -0.0216
     34 C         141.7818  137.6821  162.8393 C.3     1  UNL1        0.0434
     35 C         140.8670  137.4950  164.0132 C.3     1  UNL1        0.0768
@<TRIPOS>BOND
     1     8     9    1
     2     9    10   ar
     3    10    11   ar
     4    11    12   ar
     5    12    13   ar
     6    13     2    1
     7     2     3   ar
     8     3     4   ar
     9     4     5   ar
    10     5     1    1
    11     1    19    1
    12    19    20    1
    13    20    21    1
    14    21    22    1
    15    22    23    1
    16    23    24    1
    17    24    25   ar
    18    25    26   ar
    19    26    27   ar
    20    27    28   ar
    21    28    29    1
    22    28    30   ar
    23    30    31   ar
    24    31    32   ar
    25    32    33   ar
    26    33    34    1
    27    34    35    1
    28     5     6   ar
    29     6     7    1
    30    13    14   ar
    31    14    15   ar
    32    15    16   ar
    33    16    17   ar
    34    17    18   ar
    35    18     9   ar
    36    17    12   ar
    37     6     2   ar
    38    35    21    1
    39    33    24   ar
    40    31    26   ar
@<TRIPOS>MOLECULE
*****
 35 40 0 0 0
SMALL
GASTEIGER

@<TRIPOS>ATOM
      1 S         140.1499  140.2935  168.5078 S.3     1  UNL1       -0.0742
      2 C         142.9523  140.2379  165.8229 C.ar    1  UNL1        0.1669
      3 N         143.3706  139.0969  166.7021 N.ar    1  UNL1       -0.1282
      4 N         142.3718  138.9788  167.8149 N.ar    1  UNL1       -0.1221
      5 C         141.3361  140.0469  167.6235 C.ar    1  UNL1        0.1933
      6 N         141.6949  140.8251  166.3923 N.ar    1  UNL1       -0.2884
      7 C         140.9305  141.9865  165.8295 C.3     1  UNL1        0.1340
      8 C         142.9805  137.7563  159.4127 C.3     1  UNL1        0.0521
      9 C         143.1519  138.4945  160.7072 C.ar    1  UNL1        0.0593
     10 C         142.4381  138.0232  161.9395 C.ar    1  UNL1        0.0147
     11 C         142.6095  138.7615  163.2340 C.ar    1  UNL1        0.0028
     12 C         143.4946  139.9710  163.2962 C.ar    1  UNL1        0.0206
     13 C         143.6660  140.7092  164.5905 C.ar    1  UNL1        0.0374
     14 C         144.5511  141.9186  164.6528 C.ar    1  UNL1        0.0031
     15 C         145.2648  142.3898  163.4205 C.ar    1  UNL1        0.0016
     16 C         145.0934  141.6516  162.1260 C.ar    1  UNL1        0.0191
     17 C         144.2083  140.4421  162.0638 C.ar    1  UNL1        0.0810
     18 N         144.0370  139.7039  160.7693 N.ar    1  UNL1       -0.2497
     19 C         138.7745  139.9213  168.0389 C.3     1  UNL1        0.0824
     20 C         138.5898  138.7705  167.0948 C.3     1  UNL1        0.0843
     21 N         138.5747  139.0100  165.6141 N.3     1  UNL1       -0.2713
     22 C         138.1070  140.3674  165.1793 C.3     1  UNL1        0.0768
     23 C         137.9784  140.9105  163.7869 C.3     1  UNL1        0.0434
     24 C         138.2856  140.2305  162.4858 C.ar    1  UNL1       -0.0230
     25 C         138.0166  141.1336  161.3186 C.ar    1  UNL1        0.0178
     26 C         138.2593  140.6455  159.9212 C.ar    1  UNL1        0.1182
     27 N         138.0867  141.3032  158.5842 N.ar    1  UNL1       -0.2121
     28 C         138.4918  140.3186  157.5275 C.ar    1  UNL1        0.2062
     29 C         138.4766  140.5583  156.0468 C.3     1  UNL1        0.0950
     30 O         138.9147  139.0525  158.2114 O.2     1  UNL1       -0.4384
     31 C         138.7710  139.2544  159.6907 C.ar    1  UNL1        0.1640
     32 C         139.0400  138.3514  160.8579 C.ar    1  UNL1        0.0346
     33 C         138.7973  138.8394  162.2554 C.ar    1  UNL1       -0.0216
     34 C         139.1282  137.7848  163.2694 C.3     1  UNL1        0.0434
     35 C         139.0291  137.8608  164.7642 C.3     1  UNL1        0.0768
@<TRIPOS>BOND
     1     8     9    1
     2     9    10   ar
     3    10    11   ar
     4    11    12   ar
     5    12    13   ar
     6    13     2    1
     7     2     3   ar
     8     3     4   ar
     9     4     5   ar
    10     5     1    1
    11     1    19    1
    12    19    20    1
    13    20    21    1
    14    21    22    1
    15    22    23    1
    16    23    24    1
    17    24    25   ar
    18    25    26   ar
    19    26    27   ar
    20    27    28   ar
    21    28    29    1
    22    28    30   ar
    23    30    31   ar
    24    31    32   ar
    25    32    33   ar
    26    33    34    1
    27    34    35    1
    28     5     6   ar
    29     6     7    1
    30    13    14   ar
    31    14    15   ar
    32    15    16   ar
    33    16    17   ar
    34    17    18   ar
    35    18     9   ar
    36    17    12   ar
    37     6     2   ar
    38    35    21    1
    39    33    24   ar
    40    31    26   ar
@<TRIPOS>MOLECULE
*****
 35 40 0 0 0
SMALL
GASTEIGER

@<TRIPOS>ATOM
      1 S         141.6923  142.1828  156.3237 S.3     1  UNL1       -0.0742
      2 C         142.4397  143.6844  159.8239 C.ar    1  UNL1        0.1669
      3 N         142.2313  144.9290  159.0130 N.ar    1  UNL1       -0.1282
      4 N         141.9260  144.5181  157.6031 N.ar    1  UNL1       -0.1221
      5 C         141.9456  143.0194  157.5426 C.ar    1  UNL1        0.1933
      6 N         142.2632  142.5042  158.9151 N.ar    1  UNL1       -0.2884
      7 C         142.3830  141.0620  159.3096 C.3     1  UNL1        0.1340
      8 C         138.5287  144.8408  165.3571 C.3     1  UNL1        0.0521
      9 C         139.5883  144.5380  164.3395 C.ar    1  UNL1        0.0593
     10 C         139.2608  144.5928  162.8767 C.ar    1  UNL1        0.0147
     11 C         140.3205  144.2900  161.8591 C.ar    1  UNL1        0.0028
     12 C         141.7076  143.9324  162.3043 C.ar    1  UNL1        0.0206
     13 C         142.7672  143.6297  161.2867 C.ar    1  UNL1        0.0374
     14 C         144.1543  143.2721  161.7318 C.ar    1  UNL1        0.0031
     15 C         144.4817  143.2173  163.1946 C.ar    1  UNL1        0.0016
     16 C         143.4221  143.5201  164.2123 C.ar    1  UNL1        0.0191
     17 C         142.0350  143.8777  163.7671 C.ar    1  UNL1        0.0810
     18 N         140.9754  144.1804  164.7847 N.ar    1  UNL1       -0.2497
     19 C         140.3073  142.0848  155.7558 C.3     1  UNL1        0.0824
     20 C         139.4004  140.9676  156.1792 C.3     1  UNL1        0.0843
     21 N         139.2129  140.6651  157.6364 N.3     1  UNL1       -0.2713
     22 C         138.7259  141.8056  158.4804 C.3     1  UNL1        0.0768
     23 C         138.4429  141.8248  159.9534 C.3     1  UNL1        0.0434
     24 C         138.5769  140.7084  160.9460 C.ar    1  UNL1       -0.0230
     25 C         138.1894  141.1522  162.3255 C.ar    1  UNL1        0.0178
     26 C         138.2521  140.1846  163.4700 C.ar    1  UNL1        0.1182
     27 N         137.9346  140.3331  164.9284 N.ar    1  UNL1       -0.2121
     28 C         138.1886  139.0135  165.5948 C.ar    1  UNL1        0.2062
     29 C         138.0010  138.7111  167.0520 C.3     1  UNL1        0.0950
     30 O         138.6630  138.0494  164.5482 O.2     1  UNL1       -0.4384
     31 C         138.7022  138.7732  163.2350 C.ar    1  UNL1        0.1640
     32 C         139.0898  138.3294  161.8555 C.ar    1  UNL1        0.0346
     33 C         139.0271  139.2970  160.7111 C.ar    1  UNL1       -0.0216
     34 C         139.4544  138.6534  159.4253 C.3     1  UNL1        0.0434
     35 C         139.5371  139.2624  158.0570 C.3     1  UNL1        0.0768
@<TRIPOS>BOND
     1     8     9    1
     2     9    10   ar
     3    10    11   ar
     4    11    12   ar
     5    12    13   ar
     6    13     2    1
     7     2     3   ar
     8     3     4   ar
     9     4     5   ar
    10     5     1    1
    11     1    19    1
    12    19    20    1
    13    20    21    1
    14    21    22    1
    15    22    23    1
    16    23    24    1
    17    24    25   ar
    18    25    26   ar
    19    26    27   ar
    20    27    28   ar
    21    28    29    1
    22    28    30   ar
    23    30    31   ar
    24    31    32   ar
    25    32    33   ar
    26    33    34    1
    27    34    35    1
    28     5     6   ar
    29     6     7    1
    30    13    14   ar
    31    14    15   ar
    32    15    16   ar
    33    16    17   ar
    34    17    18   ar
    35    18     9   ar
    36    17    12   ar
    37     6     2   ar
    38    35    21    1
    39    33    24   ar
    40    31    26   ar
@<TRIPOS>MOLECULE
*****
 35 40 0 0 0
SMALL
GASTEIGER

@<TRIPOS>ATOM
      1 S         142.4513  143.6081  158.1202 S.3     1  UNL1       -0.0742
      2 C         139.7797  142.5862  160.7439 C.ar    1  UNL1        0.1669
      3 N         139.4939  141.6082  159.6431 N.ar    1  UNL1       -0.1282
      4 N         140.4598  141.8718  158.5263 N.ar    1  UNL1       -0.1221
      5 C         141.3427  143.0129  158.9368 C.ar    1  UNL1        0.1933
      6 N         140.9224  143.4545  160.3073 N.ar    1  UNL1       -0.2884
      7 C         141.5368  144.5685  161.1018 C.3     1  UNL1        0.1340
      8 C         138.5865  137.8485  165.5792 C.3     1  UNL1        0.0521
      9 C         138.7026  139.0563  164.6973 C.ar    1  UNL1        0.0593
     10 C         139.4315  138.9628  163.3895 C.ar    1  UNL1        0.0147
     11 C         139.5475  140.1707  162.5076 C.ar    1  UNL1        0.0028
     12 C         138.9348  141.4719  162.9334 C.ar    1  UNL1        0.0206
     13 C         139.0509  142.6797  162.0516 C.ar    1  UNL1        0.0374
     14 C         138.4382  143.9810  162.4773 C.ar    1  UNL1        0.0031
     15 C         137.7093  144.0744  163.7850 C.ar    1  UNL1        0.0016
     16 C         137.5932  142.8666  164.6669 C.ar    1  UNL1        0.0191
     17 C         138.2060  141.5653  164.2411 C.ar    1  UNL1        0.0810
     18 N         138.0899  140.3576  165.1231 N.ar    1  UNL1       -0.2497
     19 C         143.8563  143.1095  158.2865 C.3     1  UNL1        0.0824
     20 C         144.1187  141.8494  159.0566 C.3     1  UNL1        0.0843
     21 N         143.9347  141.8280  160.5452 N.3     1  UNL1       -0.2713
     22 C         143.1714  140.6571  161.0897 C.3     1  UNL1        0.0768
     23 C         142.8232  140.3493  162.5160 C.3     1  UNL1        0.0434
     24 C         143.1522  141.1363  163.7497 C.ar    1  UNL1       -0.0230
     25 C         142.6136  140.4731  164.9827 C.ar    1  UNL1        0.0178
     26 C         142.8335  141.0990  166.3279 C.ar    1  UNL1        0.1182
     27 N         142.4241  140.6803  167.7089 N.ar    1  UNL1       -0.2121
     28 C         142.9296  141.7106  168.6747 C.ar    1  UNL1        0.2062
     29 C         142.7455  141.6891  170.1632 C.3     1  UNL1        0.0950
     30 O         143.6514  142.7662  167.8907 O.2     1  UNL1       -0.4384
     31 C         143.5920  142.3882  166.4404 C.ar    1  UNL1        0.1640
     32 C         144.1307  143.0514  165.2074 C.ar    1  UNL1        0.0346
     33 C         143.9108  142.4254  163.8622 C.ar    1  UNL1       -0.0216
     34 C         144.5276  143.2460  162.7685 C.3     1  UNL1        0.0434
     35 C         144.5382  142.9801  161.2923 C.3     1  UNL1        0.0768
@<TRIPOS>BOND
     1     8     9    1
     2     9    10   ar
     3    10    11   ar
     4    11    12   ar
     5    12    13   ar
     6    13     2    1
     7     2     3   ar
     8     3     4   ar
     9     4     5   ar
    10     5     1    1
    11     1    19    1
    12    19    20    1
    13    20    21    1
    14    21    22    1
    15    22    23    1
    16    23    24    1
    17    24    25   ar
    18    25    26   ar
    19    26    27   ar
    20    27    28   ar
    21    28    29    1
    22    28    30   ar
    23    30    31   ar
    24    31    32   ar
    25    32    33   ar
    26    33    34    1
    27    34    35    1
    28     5     6   ar
    29     6     7    1
    30    13    14   ar
    31    14    15   ar
    32    15    16   ar
    33    16    17   ar
    34    17    18   ar
    35    18     9   ar
    36    17    12   ar
    37     6     2   ar
    38    35    21    1
    39    33    24   ar
    40    31    26   ar
@<TRIPOS>MOLECULE
*****
 35 40 0 0 0
SMALL
GASTEIGER

@<TRIPOS>ATOM
      1 S         140.3377  145.4750  160.0727 S.3     1  UNL1       -0.0742
      2 C         142.1749  142.0584  159.9446 C.ar    1  UNL1        0.1669
      3 N         143.3271  143.0002  160.1323 N.ar    1  UNL1       -0.1282
      4 N         142.7792  144.3947  160.2031 N.ar    1  UNL1       -0.1221
      5 C         141.2882  144.3148  160.0592 C.ar    1  UNL1        0.1933
      6 N         140.9147  142.8708  159.8994 N.ar    1  UNL1       -0.2884
      7 C         139.5252  142.3337  159.7251 C.3     1  UNL1        0.1340
      8 C         141.0293  137.0901  164.5548 C.3     1  UNL1        0.0521
      9 C         141.3386  137.9592  163.3719 C.ar    1  UNL1        0.0593
     10 C         141.2469  139.4515  163.4932 C.ar    1  UNL1        0.0147
     11 C         141.5562  140.3204  162.3103 C.ar    1  UNL1        0.0028
     12 C         141.9573  139.6971  161.0061 C.ar    1  UNL1        0.0206
     13 C         142.2666  140.5661  159.8233 C.ar    1  UNL1        0.0374
     14 C         142.6676  139.9429  158.5192 C.ar    1  UNL1        0.0031
     15 C         142.7593  138.4506  158.3980 C.ar    1  UNL1        0.0016
     16 C         142.4500  137.5816  159.5809 C.ar    1  UNL1        0.0191
     17 C         142.0490  138.2049  160.8850 C.ar    1  UNL1        0.0810
     18 N         141.7396  137.3359  162.0678 N.ar    1  UNL1       -0.2497
     19 C         139.8251  146.0096  161.3773 C.3     1  UNL1        0.0824
     20 C         138.8694  145.1952  162.1978 C.3     1  UNL1        0.0843
     21 N         139.3873  144.3045  163.2880 N.3     1  UNL1       -0.2713
     22 C         138.3940  143.3423  163.8691 C.3     1  UNL1        0.0768
     23 C         138.5980  142.3316  164.9586 C.3     1  UNL1        0.0434
     24 C         139.8456  142.0337  165.7361 C.ar    1  UNL1       -0.0230
     25 C         139.6181  140.9428  166.7402 C.ar    1  UNL1        0.0178
     26 C         140.7424  140.4909  167.6244 C.ar    1  UNL1        0.1182
     27 N         140.8172  139.4463  168.6982 N.ar    1  UNL1       -0.2121
     28 C         142.2152  139.4397  169.2420 C.ar    1  UNL1        0.2062
     29 C         142.7329  138.5489  170.3322 C.3     1  UNL1        0.0950
     30 O         143.0044  140.4802  168.5042 O.2     1  UNL1       -0.4384
     31 C         142.0943  141.1298  167.5045 C.ar    1  UNL1        0.1640
     32 C         142.3217  142.2208  166.5004 C.ar    1  UNL1        0.0346
     33 C         141.1974  142.6727  165.6162 C.ar    1  UNL1       -0.0216
     34 C         141.6354  143.7675  164.6891 C.3     1  UNL1        0.0434
     35 C         140.8298  144.4937  163.6530 C.3     1  UNL1        0.0768
@<TRIPOS>BOND
     1     8     9    1
     2     9    10   ar
     3    10    11   ar
     4    11    12   ar
     5    12    13   ar
     6    13     2    1
     7     2     3   ar
     8     3     4   ar
     9     4     5   ar
    10     5     1    1
    11     1    19    1
    12    19    20    1
    13    20    21    1
    14    21    22    1
    15    22    23    1
    16    23    24    1
    17    24    25   ar
    18    25    26   ar
    19    26    27   ar
    20    27    28   ar
    21    28    29    1
    22    28    30   ar
    23    30    31   ar
    24    31    32   ar
    25    32    33   ar
    26    33    34    1
    27    34    35    1
    28     5     6   ar
    29     6     7    1
    30    13    14   ar
    31    14    15   ar
    32    15    16   ar
    33    16    17   ar
    34    17    18   ar
    35    18     9   ar
    36    17    12   ar
    37     6     2   ar
    38    35    21    1
    39    33    24   ar
    40    31    26   ar
