@<TRIPOS>MOLECULE
*****
 33 37 0 0 0
SMALL
GASTEIGER

@<TRIPOS>ATOM
      1 C         140.5227  138.3640  163.4594 C.2     1  UNL1        0.2806
      2 O         140.7333  136.9049  163.1823 O.2     1  UNL1       -0.2668
      3 N         140.7171  139.3710  162.3648 N.am    1  UNL1       -0.2999
      4 H         140.5789  140.3286  162.5467 H       1  UNL1        0.1498
      5 C         141.0394  141.6435  169.0922 C.ar    1  UNL1        0.0715
      6 C         139.7688  141.1338  169.7051 C.ar    1  UNL1        0.0106
      7 C         138.9031  140.1721  168.9464 C.ar    1  UNL1        0.0069
      8 C         139.3080  139.7201  167.5747 C.ar    1  UNL1        0.0736
      9 C         138.4423  138.7584  166.8159 C.ar    1  UNL1        0.2018
     10 O         137.1717  138.2487  167.4289 O.2     1  UNL1       -0.2864
     11 C         138.8472  138.3063  165.4442 C.ar    1  UNL1        0.0843
     12 C         140.1178  138.8160  164.8312 C.ar    1  UNL1        0.2014
     13 O         140.9835  139.7777  165.5899 O.2     1  UNL1       -0.4487
     14 C         140.5786  140.2298  166.9617 C.ar    1  UNL1        0.1492
     15 C         141.4443  141.1915  167.7204 C.ar    1  UNL1        0.0479
     16 N         142.7707  143.5669  170.6096 N.1     1  UNL1       -0.1908
     17 C         141.9051  142.6052  169.8509 C.1     1  UNL1        0.1005
     18 C         141.1220  138.9190  160.9931 C.3     1  UNL1        0.0747
     19 C         142.5401  138.5093  160.7266 C.3     1  UNL1        0.0369
     20 C         142.9450  138.0572  159.3548 C.3     1  UNL1        0.0741
     21 N         141.9318  138.0149  158.2495 N.3     1  UNL1       -0.2688
     22 C         140.5136  138.4246  158.5161 C.3     1  UNL1        0.0741
     23 C         140.1087  138.8766  159.8878 C.3     1  UNL1        0.0369
     24 C         142.3367  137.5628  156.8778 C.3     1  UNL1        0.0992
     25 C         142.2536  136.1106  156.5118 C.ar    1  UNL1       -0.0029
     26 C         141.3048  135.6601  155.4410 C.ar    1  UNL1        0.0004
     27 C         141.2218  134.2077  155.0750 C.ar    1  UNL1        0.0399
     28 C         142.0876  133.2060  155.7798 C.ar    1  UNL1        0.1764
     29 C         143.0364  133.6565  156.8507 C.ar    1  UNL1        0.1762
     30 C         143.1195  135.1087  157.2167 C.ar    1  UNL1        0.0373
     31 O         143.7594  132.4482  157.3676 O.3     1  UNL1       -0.4346
     32 C         143.2574  131.2509  156.6163 C.3     1  UNL1        0.4294
     33 O         142.2242  131.7193  155.6350 O.3     1  UNL1       -0.4346
@<TRIPOS>BOND
     1    16    17    3
     2    17     5    1
     3     5     6   ar
     4     6     7   ar
     5     7     8   ar
     6     8     9   ar
     7     9    10    2
     8     9    11   ar
     9    11    12   ar
    10    12     1    1
    11     1     2    2
    12     1     3   am
    13     3    18    1
    14    18    19    1
    15    19    20    1
    16    20    21    1
    17    21    24    1
    18    24    25    1
    19    25    26   ar
    20    26    27   ar
    21    27    28   ar
    22    28    29   ar
    23    29    30   ar
    24    29    31    1
    25    31    32    1
    26    32    33    1
    27    21    22    1
    28    22    23    1
    29    12    13   ar
    30    13    14   ar
    31    14    15   ar
    32    15     5   ar
    33    14     8   ar
    34    23    18    1
    35    30    25   ar
    36    33    28    1
    37     3     4    1
@<TRIPOS>MOLECULE
*****
 33 37 0 0 0
SMALL
GASTEIGER

@<TRIPOS>ATOM
      1 C         139.8168  139.1082  163.3740 C.2     1  UNL1        0.2806
      2 O         138.9600  138.0984  162.6696 O.2     1  UNL1       -0.2668
      3 N         140.8658  139.8633  162.6127 N.am    1  UNL1       -0.2999
      4 H         141.4281  140.5261  163.0750 H       1  UNL1        0.1498
      5 C         141.0800  141.7460  169.2217 C.ar    1  UNL1        0.0715
      6 C         139.9679  141.0639  169.9620 C.ar    1  UNL1        0.0106
      7 C         139.0480  140.1271  169.2366 C.ar    1  UNL1        0.0069
      8 C         139.2402  139.8724  167.7710 C.ar    1  UNL1        0.0736
      9 C         138.3203  138.9356  167.0456 C.ar    1  UNL1        0.2018
     10 O         137.2082  138.2535  167.7858 O.2     1  UNL1       -0.2864
     11 C         138.5125  138.6808  165.5800 C.ar    1  UNL1        0.0843
     12 C         139.6246  139.3629  164.8396 C.ar    1  UNL1        0.2014
     13 O         140.5445  140.2997  165.5650 O.2     1  UNL1       -0.4487
     14 C         140.3523  140.5545  167.0307 C.ar    1  UNL1        0.1492
     15 C         141.2722  141.4913  167.7561 C.ar    1  UNL1        0.0479
     16 N         142.9198  143.6196  170.6725 N.1     1  UNL1       -0.1908
     17 C         141.9999  142.6828  169.9471 C.1     1  UNL1        0.1005
     18 C         141.0580  139.6086  161.1471 C.3     1  UNL1        0.0747
     19 C         140.3671  140.4772  160.1380 C.3     1  UNL1        0.0369
     20 C         140.5593  140.2225  158.6723 C.3     1  UNL1        0.0741
     21 N         141.4423  139.0991  158.2157 N.3     1  UNL1       -0.2688
     22 C         142.1332  138.2305  159.2249 C.3     1  UNL1        0.0741
     23 C         141.9410  138.4853  160.6905 C.3     1  UNL1        0.0369
     24 C         141.6345  138.8444  156.7501 C.3     1  UNL1        0.0992
     25 C         142.1604  137.5201  156.2817 C.ar    1  UNL1       -0.0029
     26 C         143.6158  137.3647  155.9532 C.ar    1  UNL1        0.0004
     27 C         144.1417  136.0403  155.4848 C.ar    1  UNL1        0.0399
     28 C         143.2124  134.8713  155.3449 C.ar    1  UNL1        0.1764
     29 C         141.7570  135.0266  155.6734 C.ar    1  UNL1        0.1762
     30 C         141.2311  136.3510  156.1418 C.ar    1  UNL1        0.0373
     31 O         141.0858  133.7055  155.4409 O.3     1  UNL1       -0.4346
     32 C         142.1263  132.7336  154.9687 C.3     1  UNL1        0.4294
     33 O         143.4405  133.4541  154.9094 O.3     1  UNL1       -0.4346
@<TRIPOS>BOND
     1    16    17    3
     2    17     5    1
     3     5     6   ar
     4     6     7   ar
     5     7     8   ar
     6     8     9   ar
     7     9    10    2
     8     9    11   ar
     9    11    12   ar
    10    12     1    1
    11     1     2    2
    12     1     3   am
    13     3    18    1
    14    18    19    1
    15    19    20    1
    16    20    21    1
    17    21    24    1
    18    24    25    1
    19    25    26   ar
    20    26    27   ar
    21    27    28   ar
    22    28    29   ar
    23    29    30   ar
    24    29    31    1
    25    31    32    1
    26    32    33    1
    27    21    22    1
    28    22    23    1
    29    12    13   ar
    30    13    14   ar
    31    14    15   ar
    32    15     5   ar
    33    14     8   ar
    34    23    18    1
    35    30    25   ar
    36    33    28    1
    37     3     4    1
@<TRIPOS>MOLECULE
*****
 33 37 0 0 0
SMALL
GASTEIGER

@<TRIPOS>ATOM
      1 C         142.1694  143.6785  161.9779 C.2     1  UNL1        0.2806
      2 O         143.3113  143.8328  161.0176 O.2     1  UNL1       -0.2668
      3 N         140.7579  143.8428  161.4975 N.am    1  UNL1       -0.2999
      4 H         140.0085  143.7415  162.1278 H       1  UNL1        0.1498
      5 C         140.9296  141.2443  167.9183 C.ar    1  UNL1        0.0715
      6 C         142.2235  141.6648  168.5500 C.ar    1  UNL1        0.0106
      7 C         143.2477  142.4039  167.7409 C.ar    1  UNL1        0.0069
      8 C         142.9782  142.7226  166.3002 C.ar    1  UNL1        0.0736
      9 C         144.0024  143.4617  165.4912 C.ar    1  UNL1        0.2018
     10 O         145.2963  143.8823  166.1229 O.2     1  UNL1       -0.2864
     11 C         143.7329  143.7804  164.0505 C.ar    1  UNL1        0.0843
     12 C         142.4390  143.3598  163.4187 C.ar    1  UNL1        0.2014
     13 O         141.4147  142.6207  164.2277 O.2     1  UNL1       -0.4487
     14 C         141.6843  142.3020  165.6685 C.ar    1  UNL1        0.1492
     15 C         140.6601  141.5629  166.4775 C.ar    1  UNL1        0.0479
     16 N         138.8811  139.7659  169.5363 N.1     1  UNL1       -0.1908
     17 C         139.9054  140.5051  168.7273 C.1     1  UNL1        0.1005
     18 C         140.4884  144.1614  160.0568 C.3     1  UNL1        0.0747
     19 C         141.0257  145.4260  159.4551 C.3     1  UNL1        0.0369
     20 C         140.7561  145.7447  158.0143 C.3     1  UNL1        0.0741
     21 N         139.9493  144.7987  157.1752 N.3     1  UNL1       -0.2688
     22 C         139.4120  143.5340  157.7769 C.3     1  UNL1        0.0741
     23 C         139.6815  143.2154  159.2176 C.3     1  UNL1        0.0369
     24 C         139.6797  145.1173  155.7345 C.3     1  UNL1        0.0992
     25 C         139.6634  146.5442  155.2723 C.ar    1  UNL1       -0.0029
     26 C         140.4448  146.9480  154.0572 C.ar    1  UNL1        0.0004
     27 C         140.4285  148.3750  153.5951 C.ar    1  UNL1        0.0399
     28 C         139.6308  149.3981  154.3480 C.ar    1  UNL1        0.1764
     29 C         138.8494  148.9943  155.5631 C.ar    1  UNL1        0.1762
     30 C         138.8657  147.5675  156.0252 C.ar    1  UNL1        0.0373
     31 O         138.1610  150.2149  156.0982 O.3     1  UNL1       -0.4346
     32 C         138.5169  151.3731  155.2139 C.3     1  UNL1        0.4294
     33 O         139.4253  150.8682  154.1322 O.3     1  UNL1       -0.4346
@<TRIPOS>BOND
     1    16    17    3
     2    17     5    1
     3     5     6   ar
     4     6     7   ar
     5     7     8   ar
     6     8     9   ar
     7     9    10    2
     8     9    11   ar
     9    11    12   ar
    10    12     1    1
    11     1     2    2
    12     1     3   am
    13     3    18    1
    14    18    19    1
    15    19    20    1
    16    20    21    1
    17    21    24    1
    18    24    25    1
    19    25    26   ar
    20    26    27   ar
    21    27    28   ar
    22    28    29   ar
    23    29    30   ar
    24    29    31    1
    25    31    32    1
    26    32    33    1
    27    21    22    1
    28    22    23    1
    29    12    13   ar
    30    13    14   ar
    31    14    15   ar
    32    15     5   ar
    33    14     8   ar
    34    23    18    1
    35    30    25   ar
    36    33    28    1
    37     3     4    1
@<TRIPOS>MOLECULE
*****
 33 37 0 0 0
SMALL
GASTEIGER

@<TRIPOS>ATOM
      1 C         142.7982  137.9725  158.7919 C.2     1  UNL1        0.2806
      2 O         143.6134  139.1911  158.4747 O.2     1  UNL1       -0.2668
      3 N         142.3153  137.7369  160.1924 N.am    1  UNL1       -0.2999
      4 H         141.7803  136.9371  160.4006 H       1  UNL1        0.1498
      5 C         143.3739  132.4817  155.2891 C.ar    1  UNL1        0.0715
      6 C         142.2552  132.7699  154.3323 C.ar    1  UNL1        0.0106
      7 C         141.4689  134.0410  154.4588 C.ar    1  UNL1        0.0069
      8 C         141.8012  135.0239  155.5420 C.ar    1  UNL1        0.0736
      9 C         141.0148  136.2950  155.6685 C.ar    1  UNL1        0.2018
     10 O         139.8962  136.5832  154.7117 O.2     1  UNL1       -0.2864
     11 C         141.3472  137.2778  156.7517 C.ar    1  UNL1        0.0843
     12 C         142.4659  136.9897  157.7086 C.ar    1  UNL1        0.2014
     13 O         143.2522  135.7186  157.5821 O.2     1  UNL1       -0.4487
     14 C         142.9198  134.7357  156.4988 C.ar    1  UNL1        0.1492
     15 C         143.7062  133.4646  156.3723 C.ar    1  UNL1        0.0479
     16 N         144.9465  129.9395  155.0361 N.1     1  UNL1       -0.1908
     17 C         144.1602  131.2106  155.1626 C.1     1  UNL1        0.1005
     18 C         142.6477  138.7197  161.2756 C.3     1  UNL1        0.0747
     19 C         141.6253  139.7255  161.7152 C.3     1  UNL1        0.0369
     20 C         141.9576  140.7084  162.7985 C.3     1  UNL1        0.0741
     21 N         143.3123  140.6855  163.4422 N.3     1  UNL1       -0.2688
     22 C         144.3346  139.6797  163.0026 C.3     1  UNL1        0.0741
     23 C         144.0023  138.6968  161.9193 C.3     1  UNL1        0.0369
     24 C         143.6446  141.6684  164.5254 C.3     1  UNL1        0.0992
     25 C         143.2646  141.3752  165.9465 C.ar    1  UNL1       -0.0029
     26 C         142.8703  139.9840  166.3457 C.ar    1  UNL1        0.0004
     27 C         142.4903  139.6908  167.7669 C.ar    1  UNL1        0.0399
     28 C         142.5046  140.7887  168.7888 C.ar    1  UNL1        0.1764
     29 C         142.8989  142.1798  168.3897 C.ar    1  UNL1        0.1762
     30 C         143.2789  142.4731  166.9686 C.ar    1  UNL1        0.0373
     31 O         142.8199  143.0515  169.6078 O.3     1  UNL1       -0.4346
     32 C         142.3768  142.1992  170.7599 C.3     1  UNL1        0.4294
     33 O         142.1819  140.8007  170.2537 O.3     1  UNL1       -0.4346
@<TRIPOS>BOND
     1    16    17    3
     2    17     5    1
     3     5     6   ar
     4     6     7   ar
     5     7     8   ar
     6     8     9   ar
     7     9    10    2
     8     9    11   ar
     9    11    12   ar
    10    12     1    1
    11     1     2    2
    12     1     3   am
    13     3    18    1
    14    18    19    1
    15    19    20    1
    16    20    21    1
    17    21    24    1
    18    24    25    1
    19    25    26   ar
    20    26    27   ar
    21    27    28   ar
    22    28    29   ar
    23    29    30   ar
    24    29    31    1
    25    31    32    1
    26    32    33    1
    27    21    22    1
    28    22    23    1
    29    12    13   ar
    30    13    14   ar
    31    14    15   ar
    32    15     5   ar
    33    14     8   ar
    34    23    18    1
    35    30    25   ar
    36    33    28    1
    37     3     4    1
@<TRIPOS>MOLECULE
*****
 33 37 0 0 0
SMALL
GASTEIGER

@<TRIPOS>ATOM
      1 C         142.7961  139.8800  163.0168 C.2     1  UNL1        0.2806
      2 O         143.7253  138.7158  162.8397 O.2     1  UNL1       -0.2668
      3 N         142.0668  140.4442  161.8337 N.am    1  UNL1       -0.2999
      4 H         141.4569  141.2083  161.9499 H       1  UNL1        0.1498
      5 C         139.9679  140.7063  168.8536 C.ar    1  UNL1        0.0715
      6 C         140.8824  141.7931  169.3356 C.ar    1  UNL1        0.0106
      7 C         141.9968  142.2799  168.4575 C.ar    1  UNL1        0.0069
      8 C         142.1967  141.6799  167.0974 C.ar    1  UNL1        0.0736
      9 C         143.3110  142.1668  166.2192 C.ar    1  UNL1        0.2018
     10 O         144.2256  143.2536  166.7012 O.2     1  UNL1       -0.2864
     11 C         143.5109  141.5668  164.8591 C.ar    1  UNL1        0.0843
     12 C         142.5963  140.4800  164.3770 C.ar    1  UNL1        0.2014
     13 O         141.4819  139.9931  165.2551 O.2     1  UNL1       -0.4487
     14 C         141.2821  140.5931  166.6153 C.ar    1  UNL1        0.1492
     15 C         140.1677  140.1063  167.4935 C.ar    1  UNL1        0.0479
     16 N         137.7391  139.7326  170.6099 N.1     1  UNL1       -0.1908
     17 C         138.8535  140.2194  169.7318 C.1     1  UNL1        0.1005
     18 C         142.2666  139.8443  160.4735 C.3     1  UNL1        0.0747
     19 C         141.2915  138.8319  159.9498 C.3     1  UNL1        0.0369
     20 C         141.4913  138.2319  158.5895 C.3     1  UNL1        0.0741
     21 N         142.6662  138.6443  157.7531 N.3     1  UNL1       -0.2688
     22 C         143.6413  139.6567  158.2770 C.3     1  UNL1        0.0741
     23 C         143.4415  140.2566  159.6371 C.3     1  UNL1        0.0369
     24 C         142.8660  138.0443  156.3930 C.3     1  UNL1        0.0992
     25 C         142.5465  136.5979  156.1570 C.ar    1  UNL1       -0.0029
     26 C         141.5109  136.2145  155.1419 C.ar    1  UNL1        0.0004
     27 C         141.1913  134.7680  154.9059 C.ar    1  UNL1        0.0399
     28 C         141.9074  133.7050  155.6851 C.ar    1  UNL1        0.1764
     29 C         142.9431  134.0884  156.7002 C.ar    1  UNL1        0.1762
     30 C         143.2626  135.5348  156.9362 C.ar    1  UNL1        0.0373
     31 O         143.4808  132.8289  157.3121 O.3     1  UNL1       -0.4346
     32 C         142.7776  131.6670  156.6752 C.3     1  UNL1        0.4294
     33 O         141.8052  132.2085  155.6697 O.3     1  UNL1       -0.4346
@<TRIPOS>BOND
     1    16    17    3
     2    17     5    1
     3     5     6   ar
     4     6     7   ar
     5     7     8   ar
     6     8     9   ar
     7     9    10    2
     8     9    11   ar
     9    11    12   ar
    10    12     1    1
    11     1     2    2
    12     1     3   am
    13     3    18    1
    14    18    19    1
    15    19    20    1
    16    20    21    1
    17    21    24    1
    18    24    25    1
    19    25    26   ar
    20    26    27   ar
    21    27    28   ar
    22    28    29   ar
    23    29    30   ar
    24    29    31    1
    25    31    32    1
    26    32    33    1
    27    21    22    1
    28    22    23    1
    29    12    13   ar
    30    13    14   ar
    31    14    15   ar
    32    15     5   ar
    33    14     8   ar
    34    23    18    1
    35    30    25   ar
    36    33    28    1
    37     3     4    1
@<TRIPOS>MOLECULE
*****
 33 37 0 0 0
SMALL
GASTEIGER

@<TRIPOS>ATOM
      1 C         141.9847  139.7116  163.1130 C.2     1  UNL1        0.2806
      2 O         142.0527  141.0326  162.4055 O.2     1  UNL1       -0.2668
      3 N         141.7602  138.4521  162.3298 N.am    1  UNL1       -0.2999
      4 H         141.7155  137.5851  162.7942 H       1  UNL1        0.1498
      5 C         140.8822  141.3880  169.3359 C.ar    1  UNL1        0.0715
      6 C         141.8245  140.3962  169.9508 C.ar    1  UNL1        0.0106
      7 C         142.6105  139.4658  169.0752 C.ar    1  UNL1        0.0069
      8 C         142.4540  139.5272  167.5846 C.ar    1  UNL1        0.0736
      9 C         143.2400  138.5969  166.7090 C.ar    1  UNL1        0.2018
     10 O         144.1823  137.6050  167.3239 O.2     1  UNL1       -0.2864
     11 C         143.0835  138.6583  165.2185 C.ar    1  UNL1        0.0843
     12 C         142.1411  139.6502  164.6035 C.ar    1  UNL1        0.2014
     13 O         141.3552  140.5806  165.4791 O.2     1  UNL1       -0.4487
     14 C         141.5117  140.5191  166.9697 C.ar    1  UNL1        0.1492
     15 C         140.7257  141.4494  167.8453 C.ar    1  UNL1        0.0479
     16 N         139.3103  143.2488  171.0871 N.1     1  UNL1       -0.1908
     17 C         140.0962  142.3184  170.2115 C.1     1  UNL1        0.1005
     18 C         141.6037  138.5135  160.8393 C.3     1  UNL1        0.0747
     19 C         140.2338  138.5156  160.2285 C.3     1  UNL1        0.0369
     20 C         140.0773  138.5770  158.7379 C.3     1  UNL1        0.0741
     21 N         141.2908  138.6364  157.8582 N.3     1  UNL1       -0.2688
     22 C         142.6608  138.6344  158.4691 C.3     1  UNL1        0.0741
     23 C         142.8173  138.5729  159.9596 C.3     1  UNL1        0.0369
     24 C         141.1344  138.6979  156.3677 C.3     1  UNL1        0.0992
     25 C         141.4284  137.4874  155.5322 C.ar    1  UNL1       -0.0029
     26 C         141.7002  137.6369  154.0646 C.ar    1  UNL1        0.0004
     27 C         141.9942  136.4263  153.2291 C.ar    1  UNL1        0.0399
     28 C         142.0165  135.0662  153.8613 C.ar    1  UNL1        0.1764
     29 C         141.7448  134.9166  155.3288 C.ar    1  UNL1        0.1762
     30 C         141.4508  136.1272  156.1643 C.ar    1  UNL1        0.0373
     31 O         141.8346  133.4588  155.6706 O.3     1  UNL1       -0.4346
     32 C         142.1618  132.7074  154.4144 C.3     1  UNL1        0.4294
     33 O         142.2742  133.7008  153.2961 O.3     1  UNL1       -0.4346
@<TRIPOS>BOND
     1    16    17    3
     2    17     5    1
     3     5     6   ar
     4     6     7   ar
     5     7     8   ar
     6     8     9   ar
     7     9    10    2
     8     9    11   ar
     9    11    12   ar
    10    12     1    1
    11     1     2    2
    12     1     3   am
    13     3    18    1
    14    18    19    1
    15    19    20    1
    16    20    21    1
    17    21    24    1
    18    24    25    1
    19    25    26   ar
    20    26    27   ar
    21    27    28   ar
    22    28    29   ar
    23    29    30   ar
    24    29    31    1
    25    31    32    1
    26    32    33    1
    27    21    22    1
    28    22    23    1
    29    12    13   ar
    30    13    14   ar
    31    14    15   ar
    32    15     5   ar
    33    14     8   ar
    34    23    18    1
    35    30    25   ar
    36    33    28    1
    37     3     4    1
@<TRIPOS>MOLECULE
*****
 33 37 0 0 0
SMALL
GASTEIGER

@<TRIPOS>ATOM
      1 C         140.1197  139.4999  160.7203 C.2     1  UNL1        0.2806
      2 O         139.6963  138.0837  160.9754 O.2     1  UNL1       -0.2668
      3 N         140.8163  139.8554  159.4403 N.am    1  UNL1       -0.2999
      4 H         141.0943  140.7849  159.2728 H       1  UNL1        0.1498
      5 C         140.5483  142.4950  166.5165 C.ar    1  UNL1        0.0715
      6 C         139.6512  143.6492  166.1805 C.ar    1  UNL1        0.0106
      7 C         139.0272  143.7427  164.8196 C.ar    1  UNL1        0.0069
      8 C         139.3003  142.6820  163.7948 C.ar    1  UNL1        0.0736
      9 C         138.6763  142.7755  162.4340 C.ar    1  UNL1        0.2018
     10 O         137.7791  143.9297  162.0980 O.2     1  UNL1       -0.2864
     11 C         138.9494  141.7149  161.4091 C.ar    1  UNL1        0.0843
     12 C         139.8466  140.5606  161.7451 C.ar    1  UNL1        0.2014
     13 O         140.4706  140.4671  163.1060 O.2     1  UNL1       -0.4487
     14 C         140.1975  141.5279  164.1308 C.ar    1  UNL1        0.1492
     15 C         140.8215  141.4344  165.4916 C.ar    1  UNL1        0.0479
     16 N         141.7964  142.3081  169.2381 N.1     1  UNL1       -0.1908
     17 C         141.1724  142.4016  167.8773 C.1     1  UNL1        0.1005
     18 C         141.0895  138.7947  158.4154 C.3     1  UNL1        0.0747
     19 C         139.9758  138.2829  157.5508 C.3     1  UNL1        0.0369
     20 C         140.2489  137.2221  156.5259 C.3     1  UNL1        0.0741
     21 N         141.6357  136.6733  156.3657 N.3     1  UNL1       -0.2688
     22 C         142.7494  137.1853  157.2305 C.3     1  UNL1        0.0741
     23 C         142.4763  138.2459  158.2553 C.3     1  UNL1        0.0369
     24 C         141.9088  135.6126  155.3409 C.3     1  UNL1        0.0992
     25 C         142.2692  134.2235  155.7771 C.ar    1  UNL1       -0.0029
     26 C         141.4692  133.0526  155.2881 C.ar    1  UNL1        0.0004
     27 C         141.8297  131.6634  155.7244 C.ar    1  UNL1        0.0399
     28 C         142.9900  131.4451  156.6494 C.ar    1  UNL1        0.1764
     29 C         143.7900  132.6160  157.1383 C.ar    1  UNL1        0.1762
     30 C         143.4297  134.0051  156.7022 C.ar    1  UNL1        0.0373
     31 O         144.8723  132.0951  158.0369 O.3     1  UNL1       -0.4346
     32 C         144.7412  130.6023  158.1033 C.3     1  UNL1        0.4294
     33 O         143.5779  130.2006  157.2458 O.3     1  UNL1       -0.4346
@<TRIPOS>BOND
     1    16    17    3
     2    17     5    1
     3     5     6   ar
     4     6     7   ar
     5     7     8   ar
     6     8     9   ar
     7     9    10    2
     8     9    11   ar
     9    11    12   ar
    10    12     1    1
    11     1     2    2
    12     1     3   am
    13     3    18    1
    14    18    19    1
    15    19    20    1
    16    20    21    1
    17    21    24    1
    18    24    25    1
    19    25    26   ar
    20    26    27   ar
    21    27    28   ar
    22    28    29   ar
    23    29    30   ar
    24    29    31    1
    25    31    32    1
    26    32    33    1
    27    21    22    1
    28    22    23    1
    29    12    13   ar
    30    13    14   ar
    31    14    15   ar
    32    15     5   ar
    33    14     8   ar
    34    23    18    1
    35    30    25   ar
    36    33    28    1
    37     3     4    1
@<TRIPOS>MOLECULE
*****
 33 37 0 0 0
SMALL
GASTEIGER

@<TRIPOS>ATOM
      1 C         142.0697  137.9258  157.8053 C.2     1  UNL1        0.2806
      2 O         140.8574  138.4871  158.4873 O.2     1  UNL1       -0.2668
      3 N         143.4357  138.4244  158.1735 N.am    1  UNL1       -0.2999
      4 H         144.2314  138.0560  157.7259 H       1  UNL1        0.1498
      5 C         143.2394  132.2329  154.8099 C.ar    1  UNL1        0.0715
      6 C         142.2706  132.4297  153.6819 C.ar    1  UNL1        0.0106
      7 C         141.4553  133.6865  153.6041 C.ar    1  UNL1        0.0069
      8 C         141.6089  134.7463  154.6544 C.ar    1  UNL1        0.0736
      9 C         140.7937  136.0030  154.5766 C.ar    1  UNL1        0.2018
     10 O         139.8248  136.1999  153.4486 O.2     1  UNL1       -0.2864
     11 C         140.9473  137.0628  155.6269 C.ar    1  UNL1        0.0843
     12 C         141.9162  136.8660  156.7550 C.ar    1  UNL1        0.2014
     13 O         142.7314  135.6093  156.8328 O.2     1  UNL1       -0.4487
     14 C         142.5778  134.5494  155.7824 C.ar    1  UNL1        0.1492
     15 C         143.3930  133.2927  155.8602 C.ar    1  UNL1        0.0479
     16 N         144.8699  129.7195  154.9654 N.1     1  UNL1       -0.1908
     17 C         144.0547  130.9762  154.8877 C.1     1  UNL1        0.1005
     18 C         143.5893  139.4842  159.2238 C.3     1  UNL1        0.0747
     19 C         143.9762  139.1038  160.6222 C.3     1  UNL1        0.0369
     20 C         144.1298  140.1636  161.6726 C.3     1  UNL1        0.0741
     21 N         143.8966  141.6039  161.3244 N.3     1  UNL1       -0.2688
     22 C         143.5097  141.9844  159.9259 C.3     1  UNL1        0.0741
     23 C         143.3561  140.9245  158.8757 C.3     1  UNL1        0.0369
     24 C         144.0502  142.6638  162.3747 C.3     1  UNL1        0.0992
     25 C         142.8362  143.3318  162.9491 C.ar    1  UNL1       -0.0029
     26 C         142.8689  144.7959  163.2738 C.ar    1  UNL1        0.0004
     27 C         141.6548  145.4640  163.8483 C.ar    1  UNL1        0.0399
     28 C         140.4083  144.6680  164.0981 C.ar    1  UNL1        0.1764
     29 C         140.3757  143.2039  163.7734 C.ar    1  UNL1        0.1762
     30 C         141.5896  142.5358  163.1990 C.ar    1  UNL1        0.0373
     31 O         139.0145  142.6812  164.1257 O.3     1  UNL1       -0.4346
     32 C         138.2059  143.8222  164.6681 C.3     1  UNL1        0.4294
     33 O         139.0673  145.0501  164.6510 O.3     1  UNL1       -0.4346
@<TRIPOS>BOND
     1    16    17    3
     2    17     5    1
     3     5     6   ar
     4     6     7   ar
     5     7     8   ar
     6     8     9   ar
     7     9    10    2
     8     9    11   ar
     9    11    12   ar
    10    12     1    1
    11     1     2    2
    12     1     3   am
    13     3    18    1
    14    18    19    1
    15    19    20    1
    16    20    21    1
    17    21    24    1
    18    24    25    1
    19    25    26   ar
    20    26    27   ar
    21    27    28   ar
    22    28    29   ar
    23    29    30   ar
    24    29    31    1
    25    31    32    1
    26    32    33    1
    27    21    22    1
    28    22    23    1
    29    12    13   ar
    30    13    14   ar
    31    14    15   ar
    32    15     5   ar
    33    14     8   ar
    34    23    18    1
    35    30    25   ar
    36    33    28    1
    37     3     4    1
@<TRIPOS>MOLECULE
*****
 33 37 0 0 0
SMALL
GASTEIGER

@<TRIPOS>ATOM
      1 C         143.3838  136.2096  156.5226 C.2     1  UNL1        0.2806
      2 O         144.4825  136.8622  155.7371 O.2     1  UNL1       -0.2668
      3 N         142.5018  137.0378  157.4094 N.am    1  UNL1       -0.2999
      4 H         141.7807  136.6095  157.9249 H       1  UNL1        0.1498
      5 C         144.3946  129.8917  157.8691 C.ar    1  UNL1        0.0715
      6 C         143.3472  129.3487  156.9427 C.ar    1  UNL1        0.0106
      7 C         142.5167  130.2864  156.1176 C.ar    1  UNL1        0.0069
      8 C         142.7334  131.7672  156.2188 C.ar    1  UNL1        0.0736
      9 C         141.9029  132.7049  155.3937 C.ar    1  UNL1        0.2018
     10 O         140.8555  132.1619  154.4674 O.2     1  UNL1       -0.2864
     11 C         142.1196  134.1857  155.4950 C.ar    1  UNL1        0.0843
     12 C         143.1670  134.7288  156.4213 C.ar    1  UNL1        0.2014
     13 O         143.9976  133.7911  157.2465 O.2     1  UNL1       -0.4487
     14 C         143.7808  132.3102  157.1452 C.ar    1  UNL1        0.1492
     15 C         144.6113  131.3725  157.9703 C.ar    1  UNL1        0.0479
     16 N         146.0557  128.0162  159.5193 N.1     1  UNL1       -0.1908
     17 C         145.2251  128.9540  158.6942 C.1     1  UNL1        0.1005
     18 C         142.7186  138.5186  157.5106 C.3     1  UNL1        0.0747
     19 C         143.3105  139.1064  158.7572 C.3     1  UNL1        0.0369
     20 C         143.5273  140.5872  158.8585 C.3     1  UNL1        0.0741
     21 N         143.1521  141.4802  157.7131 N.3     1  UNL1       -0.2688
     22 C         142.5602  140.8923  156.4665 C.3     1  UNL1        0.0741
     23 C         142.3434  139.4115  156.3652 C.3     1  UNL1        0.0369
     24 C         143.3689  142.9609  157.8143 C.3     1  UNL1        0.0992
     25 C         142.3482  143.8235  158.4956 C.ar    1  UNL1       -0.0029
     26 C         141.4138  144.6666  157.6795 C.ar    1  UNL1        0.0004
     27 C         140.3930  145.5291  158.3609 C.ar    1  UNL1        0.0399
     28 C         140.3068  145.5485  159.8583 C.ar    1  UNL1        0.1764
     29 C         141.2412  144.7054  160.6743 C.ar    1  UNL1        0.1762
     30 C         142.2619  143.8429  159.9931 C.ar    1  UNL1        0.0373
     31 O         140.9221  144.9292  162.1228 O.3     1  UNL1       -0.4346
     32 C         139.7905  145.9105  162.2020 C.3     1  UNL1        0.4294
     33 O         139.4102  146.2933  160.8024 O.3     1  UNL1       -0.4346
@<TRIPOS>BOND
     1    16    17    3
     2    17     5    1
     3     5     6   ar
     4     6     7   ar
     5     7     8   ar
     6     8     9   ar
     7     9    10    2
     8     9    11   ar
     9    11    12   ar
    10    12     1    1
    11     1     2    2
    12     1     3   am
    13     3    18    1
    14    18    19    1
    15    19    20    1
    16    20    21    1
    17    21    24    1
    18    24    25    1
    19    25    26   ar
    20    26    27   ar
    21    27    28   ar
    22    28    29   ar
    23    29    30   ar
    24    29    31    1
    25    31    32    1
    26    32    33    1
    27    21    22    1
    28    22    23    1
    29    12    13   ar
    30    13    14   ar
    31    14    15   ar
    32    15     5   ar
    33    14     8   ar
    34    23    18    1
    35    30    25   ar
    36    33    28    1
    37     3     4    1
