@<TRIPOS>MOLECULE
*****
 25 27 0 0 0
SMALL
GASTEIGER

@<TRIPOS>ATOM
      1 C         140.9509  140.9075  165.7458 C.3     1  UNL1        0.0459
      2 C         142.1319  140.6470  164.8585 C.ar    1  UNL1       -0.0184
      3 C         142.1328  141.1482  163.4446 C.ar    1  UNL1       -0.0040
      4 C         143.3137  140.8876  162.5573 C.ar    1  UNL1       -0.0003
      5 C         144.4938  140.1259  163.0838 C.ar    1  UNL1       -0.0000
      6 C         144.4929  139.6247  164.4975 C.ar    1  UNL1       -0.0003
      7 C         143.3119  139.8852  165.3849 C.ar    1  UNL1       -0.0040
      8 C         139.9299  141.9341  165.3534 C.ar    1  UNL1       -0.0184
      9 C         140.1074  143.3648  165.7675 C.ar    1  UNL1       -0.0040
     10 C         139.0865  144.3913  165.3751 C.ar    1  UNL1       -0.0003
     11 C         137.8881  143.9871  164.5686 C.ar    1  UNL1       -0.0000
     12 C         137.7107  142.5563  164.1545 C.ar    1  UNL1       -0.0003
     13 C         138.7316  141.5298  164.5469 C.ar    1  UNL1       -0.0040
     14 C         140.7909  140.1416  167.0255 C.3     1  UNL1        0.0258
     15 C         139.5364  140.2874  167.8350 C.3     1  UNL1        0.0692
     16 N         138.5215  139.1828  167.8508 N.3     1  UNL1       -0.2972
     17 H         138.9747  138.3726  168.2733 H       1  UNL1        0.1233
     18 C         137.9041  138.7132  166.5670 C.3     1  UNL1        0.0733
     19 C         138.4464  137.4983  165.8743 C.3     1  UNL1        0.0434
     20 C         140.9078  137.9515  162.1345 C.ar    1  UNL1       -0.0000
     21 C         139.4664  138.3663  162.1385 C.ar    1  UNL1       -0.0003
     22 C         138.6459  138.2153  163.3851 C.ar    1  UNL1       -0.0042
     23 C         139.2669  137.6494  164.6277 C.ar    1  UNL1       -0.0208
     24 C         140.7083  137.2345  164.6237 C.ar    1  UNL1       -0.0042
     25 C         141.5288  137.3856  163.3771 C.ar    1  UNL1       -0.0003
@<TRIPOS>BOND
     1    20    21   ar
     2    21    22   ar
     3    22    23   ar
     4    23    19    1
     5    19    18    1
     6    18    16    1
     7    16    15    1
     8    15    14    1
     9    14     1    1
    10     1     2    1
    11     2     3   ar
    12     3     4   ar
    13     4     5   ar
    14     5     6   ar
    15     6     7   ar
    16     1     8    1
    17     8     9   ar
    18     9    10   ar
    19    10    11   ar
    20    11    12   ar
    21    12    13   ar
    22    23    24   ar
    23    24    25   ar
    24    25    20   ar
    25     7     2   ar
    26    13     8   ar
    27    16    17    1
@<TRIPOS>MOLECULE
*****
 25 27 0 0 0
SMALL
GASTEIGER

@<TRIPOS>ATOM
      1 C         140.5774  141.4900  165.4156 C.3     1  UNL1        0.0459
      2 C         141.8031  140.8021  164.8917 C.ar    1  UNL1       -0.0184
      3 C         142.1800  140.9389  163.4462 C.ar    1  UNL1       -0.0040
      4 C         143.4056  140.2510  162.9223 C.ar    1  UNL1       -0.0003
      5 C         144.2545  139.4262  163.8439 C.ar    1  UNL1       -0.0000
      6 C         143.8776  139.2893  165.2893 C.ar    1  UNL1       -0.0003
      7 C         142.6519  139.9773  165.8132 C.ar    1  UNL1       -0.0040
      8 C         140.2850  141.4839  166.8868 C.ar    1  UNL1       -0.0184
      9 C         140.6213  142.6827  167.7233 C.ar    1  UNL1       -0.0040
     10 C         140.3289  142.6766  169.1945 C.ar    1  UNL1       -0.0003
     11 C         139.7002  141.4717  169.8292 C.ar    1  UNL1       -0.0000
     12 C         139.3638  140.2729  168.9927 C.ar    1  UNL1       -0.0003
     13 C         139.6563  140.2790  167.5215 C.ar    1  UNL1       -0.0040
     14 C         139.6442  142.1840  164.4683 C.3     1  UNL1        0.0258
     15 C         138.1673  142.1768  164.7304 C.3     1  UNL1        0.0692
     16 N         137.2502  141.3992  163.8335 N.3     1  UNL1       -0.2972
     17 H         136.9635  140.5698  164.3533 H       1  UNL1        0.1233
     18 C         137.7341  140.9256  162.4950 C.3     1  UNL1        0.0733
     19 C         137.8578  139.4564  162.2191 C.3     1  UNL1        0.0434
     20 C         141.1247  137.0652  164.1837 C.ar    1  UNL1       -0.0000
     21 C         139.9558  137.5442  164.9925 C.ar    1  UNL1       -0.0003
     22 C         138.8669  138.3412  164.3376 C.ar    1  UNL1       -0.0042
     23 C         138.9468  138.6594  162.8739 C.ar    1  UNL1       -0.0208
     24 C         140.1157  138.1804  162.0651 C.ar    1  UNL1       -0.0042
     25 C         141.2047  137.3833  162.7200 C.ar    1  UNL1       -0.0003
@<TRIPOS>BOND
     1    20    21   ar
     2    21    22   ar
     3    22    23   ar
     4    23    19    1
     5    19    18    1
     6    18    16    1
     7    16    15    1
     8    15    14    1
     9    14     1    1
    10     1     2    1
    11     2     3   ar
    12     3     4   ar
    13     4     5   ar
    14     5     6   ar
    15     6     7   ar
    16     1     8    1
    17     8     9   ar
    18     9    10   ar
    19    10    11   ar
    20    11    12   ar
    21    12    13   ar
    22    23    24   ar
    23    24    25   ar
    24    25    20   ar
    25     7     2   ar
    26    13     8   ar
    27    16    17    1
@<TRIPOS>MOLECULE
*****
 25 27 0 0 0
SMALL
GASTEIGER

@<TRIPOS>ATOM
      1 C         140.6579  141.4223  165.4431 C.3     1  UNL1        0.0459
      2 C         140.3523  141.4368  166.9115 C.ar    1  UNL1       -0.0184
      3 C         140.7106  142.6346  167.7404 C.ar    1  UNL1       -0.0040
      4 C         140.4051  142.6491  169.2089 C.ar    1  UNL1       -0.0003
      5 C         139.7413  141.4657  169.8485 C.ar    1  UNL1       -0.0000
      6 C         139.3830  140.2680  169.0197 C.ar    1  UNL1       -0.0003
      7 C         139.6885  140.2535  167.5512 C.ar    1  UNL1       -0.0040
      8 C         141.8885  140.7278  164.9399 C.ar    1  UNL1       -0.0184
      9 C         142.3337  140.9248  163.5211 C.ar    1  UNL1       -0.0040
     10 C         143.5643  140.2303  163.0178 C.ar    1  UNL1       -0.0003
     11 C         144.3497  139.3388  163.9334 C.ar    1  UNL1       -0.0000
     12 C         143.9045  139.1417  165.3522 C.ar    1  UNL1       -0.0003
     13 C         142.6739  139.8363  165.8554 C.ar    1  UNL1       -0.0040
     14 C         139.7328  142.1024  164.4778 C.3     1  UNL1        0.0258
     15 C         138.2579  142.1356  164.7491 C.3     1  UNL1        0.0692
     16 N         137.3308  141.2563  163.9633 N.3     1  UNL1       -0.2972
     17 H         137.2169  140.3956  164.4987 H       1  UNL1        0.1233
     18 C         137.6876  140.8515  162.5637 C.3     1  UNL1        0.0733
     19 C         137.8801  139.4023  162.2281 C.3     1  UNL1        0.0434
     20 C         141.1436  137.0422  164.2353 C.ar    1  UNL1       -0.0000
     21 C         141.2645  137.4060  162.7851 C.ar    1  UNL1       -0.0003
     22 C         140.1766  138.1927  162.1161 C.ar    1  UNL1       -0.0042
     23 C         138.9679  138.6156  162.8972 C.ar    1  UNL1       -0.0208
     24 C         138.8471  138.2518  164.3473 C.ar    1  UNL1       -0.0042
     25 C         139.9349  137.4650  165.0164 C.ar    1  UNL1       -0.0003
@<TRIPOS>BOND
     1    20    21   ar
     2    21    22   ar
     3    22    23   ar
     4    23    19    1
     5    19    18    1
     6    18    16    1
     7    16    15    1
     8    15    14    1
     9    14     1    1
    10     1     2    1
    11     2     3   ar
    12     3     4   ar
    13     4     5   ar
    14     5     6   ar
    15     6     7   ar
    16     1     8    1
    17     8     9   ar
    18     9    10   ar
    19    10    11   ar
    20    11    12   ar
    21    12    13   ar
    22    23    24   ar
    23    24    25   ar
    24    25    20   ar
    25     7     2   ar
    26    13     8   ar
    27    16    17    1
@<TRIPOS>MOLECULE
*****
 25 27 0 0 0
SMALL
GASTEIGER

@<TRIPOS>ATOM
      1 C         139.5193  140.3566  165.6325 C.3     1  UNL1        0.0459
      2 C         139.1496  141.7479  165.2112 C.ar    1  UNL1       -0.0184
      3 C         140.0008  142.9097  165.6306 C.ar    1  UNL1       -0.0040
      4 C         139.6310  144.3010  165.2093 C.ar    1  UNL1       -0.0003
      5 C         138.4101  144.5305  164.3686 C.ar    1  UNL1       -0.0000
      6 C         137.5590  143.3688  163.9493 C.ar    1  UNL1       -0.0003
      7 C         137.9287  141.9775  164.3706 C.ar    1  UNL1       -0.0040
      8 C         140.2341  139.4484  164.6762 C.ar    1  UNL1       -0.0184
      9 C         140.3855  137.9909  164.9971 C.ar    1  UNL1       -0.0040
     10 C         141.1002  137.0827  164.0409 C.ar    1  UNL1       -0.0003
     11 C         141.6635  137.6320  162.7639 C.ar    1  UNL1       -0.0000
     12 C         141.5122  139.0895  162.4430 C.ar    1  UNL1       -0.0003
     13 C         140.7974  139.9976  163.3992 C.ar    1  UNL1       -0.0040
     14 C         139.1743  139.8734  167.0100 C.3     1  UNL1        0.0258
     15 C         139.7291  140.5776  168.2126 C.3     1  UNL1        0.0692
     16 N         140.7206  139.8822  169.0978 N.3     1  UNL1       -0.2972
     17 H         140.5980  140.2654  170.0351 H       1  UNL1        0.1233
     18 C         142.1861  139.9584  168.7871 C.3     1  UNL1        0.0733
     19 C         142.7701  139.0942  167.7091 C.3     1  UNL1        0.0434
     20 C         144.4142  140.9713  163.9644 C.ar    1  UNL1       -0.0000
     21 C         143.6608  141.8089  164.9547 C.ar    1  UNL1       -0.0003
     22 C         143.1128  141.1832  166.2030 C.ar    1  UNL1       -0.0042
     23 C         143.3181  139.7199  166.4609 C.ar    1  UNL1       -0.0208
     24 C         144.0715  138.8823  165.4705 C.ar    1  UNL1       -0.0042
     25 C         144.6195  139.5080  164.2223 C.ar    1  UNL1       -0.0003
@<TRIPOS>BOND
     1    20    21   ar
     2    21    22   ar
     3    22    23   ar
     4    23    19    1
     5    19    18    1
     6    18    16    1
     7    16    15    1
     8    15    14    1
     9    14     1    1
    10     1     2    1
    11     2     3   ar
    12     3     4   ar
    13     4     5   ar
    14     5     6   ar
    15     6     7   ar
    16     1     8    1
    17     8     9   ar
    18     9    10   ar
    19    10    11   ar
    20    11    12   ar
    21    12    13   ar
    22    23    24   ar
    23    24    25   ar
    24    25    20   ar
    25     7     2   ar
    26    13     8   ar
    27    16    17    1
@<TRIPOS>MOLECULE
*****
 25 27 0 0 0
SMALL
GASTEIGER

@<TRIPOS>ATOM
      1 C         140.5738  141.9618  166.0989 C.3     1  UNL1        0.0459
      2 C         141.2110  142.2951  167.4153 C.ar    1  UNL1       -0.0184
      3 C         140.4101  142.9767  168.4850 C.ar    1  UNL1       -0.0040
      4 C         141.0473  143.3101  169.8013 C.ar    1  UNL1       -0.0003
      5 C         142.4854  142.9619  170.0480 C.ar    1  UNL1       -0.0000
      6 C         143.2862  142.2803  168.9784 C.ar    1  UNL1       -0.0003
      7 C         142.6490  141.9470  167.6620 C.ar    1  UNL1       -0.0040
      8 C         140.1232  140.5589  165.8176 C.ar    1  UNL1       -0.0184
      9 C         141.0686  139.5798  165.1872 C.ar    1  UNL1       -0.0040
     10 C         140.6182  138.1770  164.9059 C.ar    1  UNL1       -0.0003
     11 C         139.2223  137.7533  165.2551 C.ar    1  UNL1       -0.0000
     12 C         138.2769  138.7324  165.8856 C.ar    1  UNL1       -0.0003
     13 C         138.7274  140.1352  166.1668 C.ar    1  UNL1       -0.0040
     14 C         140.3871  143.0312  165.0638 C.3     1  UNL1        0.0258
     15 C         139.1893  143.9321  165.1238 C.3     1  UNL1        0.0692
     16 N         137.8649  143.4546  164.6060 N.3     1  UNL1       -0.2972
     17 H         137.5325  142.7443  165.2582 H       1  UNL1        0.1233
     18 C         137.7669  142.8607  163.2321 C.3     1  UNL1        0.0733
     19 C         137.3856  141.4198  163.0633 C.3     1  UNL1        0.0434
     20 C         140.2764  138.5334  161.1760 C.ar    1  UNL1       -0.0000
     21 C         138.8810  138.0911  161.5033 C.ar    1  UNL1       -0.0003
     22 C         137.9174  139.0533  162.1324 C.ar    1  UNL1       -0.0042
     23 C         138.3492  140.4577  162.4342 C.ar    1  UNL1       -0.0208
     24 C         139.7446  140.9000  162.1069 C.ar    1  UNL1       -0.0042
     25 C         140.7082  139.9379  161.4778 C.ar    1  UNL1       -0.0003
@<TRIPOS>BOND
     1    20    21   ar
     2    21    22   ar
     3    22    23   ar
     4    23    19    1
     5    19    18    1
     6    18    16    1
     7    16    15    1
     8    15    14    1
     9    14     1    1
    10     1     2    1
    11     2     3   ar
    12     3     4   ar
    13     4     5   ar
    14     5     6   ar
    15     6     7   ar
    16     1     8    1
    17     8     9   ar
    18     9    10   ar
    19    10    11   ar
    20    11    12   ar
    21    12    13   ar
    22    23    24   ar
    23    24    25   ar
    24    25    20   ar
    25     7     2   ar
    26    13     8   ar
    27    16    17    1
@<TRIPOS>MOLECULE
*****
 25 27 0 0 0
SMALL
GASTEIGER

@<TRIPOS>ATOM
      1 C         141.4336  141.9820  165.8311 C.3     1  UNL1        0.0459
      2 C         141.7915  140.7698  165.0234 C.ar    1  UNL1       -0.0184
      3 C         142.2332  139.5128  165.7126 C.ar    1  UNL1       -0.0040
      4 C         142.5911  138.3006  164.9049 C.ar    1  UNL1       -0.0003
      5 C         142.5073  138.3454  163.4078 C.ar    1  UNL1       -0.0000
      6 C         142.0656  139.6023  162.7186 C.ar    1  UNL1       -0.0003
      7 C         141.7077  140.8145  163.5264 C.ar    1  UNL1       -0.0040
      8 C         141.6128  141.9706  167.3204 C.ar    1  UNL1       -0.0184
      9 C         142.9485  142.3013  167.9176 C.ar    1  UNL1       -0.0040
     10 C         143.1278  142.2899  169.4067 C.ar    1  UNL1       -0.0003
     11 C         141.9714  141.9478  170.2987 C.ar    1  UNL1       -0.0000
     12 C         140.6358  141.6170  169.7016 C.ar    1  UNL1       -0.0003
     13 C         140.4565  141.6284  168.2124 C.ar    1  UNL1       -0.0040
     14 C         140.8964  143.2055  165.1497 C.3     1  UNL1        0.0258
     15 C         139.5507  143.7469  165.5317 C.3     1  UNL1        0.0692
     16 N         138.4052  143.6577  164.5674 N.3     1  UNL1       -0.2972
     17 H         137.5876  143.3730  165.1068 H       1  UNL1        0.1233
     18 C         138.4881  142.7353  163.3875 C.3     1  UNL1        0.0733
     19 C         137.6123  141.5193  163.3231 C.3     1  UNL1        0.0434
     20 C         139.0078  137.6427  165.1328 C.ar    1  UNL1       -0.0000
     21 C         138.6505  138.7987  166.0194 C.ar    1  UNL1       -0.0003
     22 C         138.1853  140.0908  165.4162 C.ar    1  UNL1       -0.0042
     23 C         138.0774  140.2271  163.9263 C.ar    1  UNL1       -0.0208
     24 C         138.4347  139.0712  163.0397 C.ar    1  UNL1       -0.0042
     25 C         138.8999  137.7790  163.6429 C.ar    1  UNL1       -0.0003
@<TRIPOS>BOND
     1    20    21   ar
     2    21    22   ar
     3    22    23   ar
     4    23    19    1
     5    19    18    1
     6    18    16    1
     7    16    15    1
     8    15    14    1
     9    14     1    1
    10     1     2    1
    11     2     3   ar
    12     3     4   ar
    13     4     5   ar
    14     5     6   ar
    15     6     7   ar
    16     1     8    1
    17     8     9   ar
    18     9    10   ar
    19    10    11   ar
    20    11    12   ar
    21    12    13   ar
    22    23    24   ar
    23    24    25   ar
    24    25    20   ar
    25     7     2   ar
    26    13     8   ar
    27    16    17    1
@<TRIPOS>MOLECULE
*****
 25 27 0 0 0
SMALL
GASTEIGER

@<TRIPOS>ATOM
      1 C         139.1712  140.1458  166.2467 C.3     1  UNL1        0.0459
      2 C         139.0334  141.4647  165.5456 C.ar    1  UNL1       -0.0184
      3 C         138.0571  141.6156  164.4168 C.ar    1  UNL1       -0.0040
      4 C         137.9192  142.9345  163.7158 C.ar    1  UNL1       -0.0003
      5 C         138.7576  144.1025  164.1435 C.ar    1  UNL1       -0.0000
      6 C         139.7338  143.9516  165.2723 C.ar    1  UNL1       -0.0003
      7 C         139.8717  142.6326  165.9733 C.ar    1  UNL1       -0.0040
      8 C         140.1759  139.9836  167.3487 C.ar    1  UNL1       -0.0184
      9 C         139.7445  140.1028  168.7804 C.ar    1  UNL1       -0.0040
     10 C         140.7491  139.9406  169.8824 C.ar    1  UNL1       -0.0003
     11 C         142.1851  139.6593  169.5527 C.ar    1  UNL1       -0.0000
     12 C         142.6165  139.5401  168.1211 C.ar    1  UNL1       -0.0003
     13 C         141.6119  139.7023  167.0191 C.ar    1  UNL1       -0.0040
     14 C         138.3045  138.9891  165.8458 C.3     1  UNL1        0.0258
     15 C         138.8816  137.8636  165.0394 C.3     1  UNL1        0.0692
     16 N         138.8321  137.9123  163.5409 N.3     1  UNL1       -0.2972
     17 H         138.1289  137.2344  163.2473 H       1  UNL1        0.1233
     18 C         140.0683  137.6283  162.7402 C.3     1  UNL1        0.0733
     19 C         141.4083  137.6004  163.4137 C.3     1  UNL1        0.0434
     20 C         143.6798  141.4303  164.0638 C.ar    1  UNL1       -0.0000
     21 C         144.3136  140.1148  164.4070 C.ar    1  UNL1       -0.0003
     22 C         143.5565  138.8382  164.1903 C.ar    1  UNL1       -0.0042
     23 C         142.1654  138.8770  163.6304 C.ar    1  UNL1       -0.0208
     24 C         141.5316  140.1925  163.2872 C.ar    1  UNL1       -0.0042
     25 C         142.2888  141.4691  163.5039 C.ar    1  UNL1       -0.0003
@<TRIPOS>BOND
     1    20    21   ar
     2    21    22   ar
     3    22    23   ar
     4    23    19    1
     5    19    18    1
     6    18    16    1
     7    16    15    1
     8    15    14    1
     9    14     1    1
    10     1     2    1
    11     2     3   ar
    12     3     4   ar
    13     4     5   ar
    14     5     6   ar
    15     6     7   ar
    16     1     8    1
    17     8     9   ar
    18     9    10   ar
    19    10    11   ar
    20    11    12   ar
    21    12    13   ar
    22    23    24   ar
    23    24    25   ar
    24    25    20   ar
    25     7     2   ar
    26    13     8   ar
    27    16    17    1
@<TRIPOS>MOLECULE
*****
 25 27 0 0 0
SMALL
GASTEIGER

@<TRIPOS>ATOM
      1 C         140.4388  141.9715  166.0874 C.3     1  UNL1        0.0459
      2 C         140.0733  140.5476  165.7893 C.ar    1  UNL1       -0.0184
      3 C         138.6778  140.0616  166.0476 C.ar    1  UNL1       -0.0040
      4 C         138.3123  138.6377  165.7494 C.ar    1  UNL1       -0.0003
      5 C         139.3422  137.6998  165.1929 C.ar    1  UNL1       -0.0000
      6 C         140.7375  138.1857  164.9347 C.ar    1  UNL1       -0.0003
      7 C         141.1031  139.6096  165.2328 C.ar    1  UNL1       -0.0040
      8 C         141.1087  142.3181  167.3841 C.ar    1  UNL1       -0.0184
      9 C         142.5561  141.9844  167.5932 C.ar    1  UNL1       -0.0040
     10 C         143.2259  142.3310  168.8898 C.ar    1  UNL1       -0.0003
     11 C         142.4483  143.0112  169.9773 C.ar    1  UNL1       -0.0000
     12 C         141.0009  143.3448  169.7682 C.ar    1  UNL1       -0.0003
     13 C         140.3311  142.9983  168.4716 C.ar    1  UNL1       -0.0040
     14 C         140.1346  143.0487  165.0890 C.3     1  UNL1        0.0258
     15 C         138.7555  143.6339  165.0139 C.3     1  UNL1        0.0692
     16 N         138.2257  144.1396  163.7048 N.3     1  UNL1       -0.2972
     17 H         137.3446  144.6122  163.9066 H       1  UNL1        0.1233
     18 C         137.9556  143.1800  162.5840 C.3     1  UNL1        0.0733
     19 C         137.5833  141.7588  162.8868 C.3     1  UNL1        0.0434
     20 C         140.1006  138.3854  161.2952 C.ar    1  UNL1       -0.0000
     21 C         138.6513  138.1572  161.6072 C.ar    1  UNL1       -0.0003
     22 C         137.8122  139.2816  162.1378 C.ar    1  UNL1       -0.0042
     23 C         138.4224  140.6344  162.3563 C.ar    1  UNL1       -0.0208
     24 C         139.8717  140.8626  162.0442 C.ar    1  UNL1       -0.0042
     25 C         140.7108  139.7381  161.5137 C.ar    1  UNL1       -0.0003
@<TRIPOS>BOND
     1    20    21   ar
     2    21    22   ar
     3    22    23   ar
     4    23    19    1
     5    19    18    1
     6    18    16    1
     7    16    15    1
     8    15    14    1
     9    14     1    1
    10     1     2    1
    11     2     3   ar
    12     3     4   ar
    13     4     5   ar
    14     5     6   ar
    15     6     7   ar
    16     1     8    1
    17     8     9   ar
    18     9    10   ar
    19    10    11   ar
    20    11    12   ar
    21    12    13   ar
    22    23    24   ar
    23    24    25   ar
    24    25    20   ar
    25     7     2   ar
    26    13     8   ar
    27    16    17    1
@<TRIPOS>MOLECULE
*****
 25 27 0 0 0
SMALL
GASTEIGER

@<TRIPOS>ATOM
      1 C         141.5286  142.3300  166.3240 C.3     1  UNL1        0.0459
      2 C         140.7673  141.8360  167.5184 C.ar    1  UNL1       -0.0184
      3 C         140.7460  142.6451  168.7813 C.ar    1  UNL1       -0.0040
      4 C         139.9847  142.1512  169.9757 C.ar    1  UNL1       -0.0003
      5 C         139.2447  140.8482  169.9071 C.ar    1  UNL1       -0.0000
      6 C         139.2660  140.0392  168.6441 C.ar    1  UNL1       -0.0003
      7 C         140.0273  140.5331  167.4498 C.ar    1  UNL1       -0.0040
      8 C         140.8935  143.3101  165.3826 C.ar    1  UNL1       -0.0184
      9 C         141.6831  143.8680  164.2358 C.ar    1  UNL1       -0.0040
     10 C         141.0481  144.8480  163.2944 C.ar    1  UNL1       -0.0003
     11 C         139.6235  145.2702  163.4998 C.ar    1  UNL1       -0.0000
     12 C         138.8339  144.7122  164.6467 C.ar    1  UNL1       -0.0003
     13 C         139.4689  143.7322  165.5881 C.ar    1  UNL1       -0.0040
     14 C         142.9249  141.8439  166.0710 C.3     1  UNL1        0.0258
     15 C         143.1634  140.4125  165.6913 C.3     1  UNL1        0.0692
     16 N         143.4874  140.0575  164.2703 N.3     1  UNL1       -0.2972
     17 H         143.8844  140.8934  163.8412 H       1  UNL1        0.1233
     18 C         142.4044  139.5724  163.3528 C.3     1  UNL1        0.0733
     19 C         141.6874  140.5417  162.4605 C.3     1  UNL1        0.0434
     20 C         137.3753  141.5590  163.2481 C.ar    1  UNL1       -0.0000
     21 C         138.0952  140.5974  164.1464 C.ar    1  UNL1       -0.0003
     22 C         139.5325  140.2583  163.8839 C.ar    1  UNL1       -0.0042
     23 C         140.2500  140.8808  162.7230 C.ar    1  UNL1       -0.0208
     24 C         139.5301  141.8424  161.8247 C.ar    1  UNL1       -0.0042
     25 C         138.0928  142.1815  162.0873 C.ar    1  UNL1       -0.0003
@<TRIPOS>BOND
     1    20    21   ar
     2    21    22   ar
     3    22    23   ar
     4    23    19    1
     5    19    18    1
     6    18    16    1
     7    16    15    1
     8    15    14    1
     9    14     1    1
    10     1     2    1
    11     2     3   ar
    12     3     4   ar
    13     4     5   ar
    14     5     6   ar
    15     6     7   ar
    16     1     8    1
    17     8     9   ar
    18     9    10   ar
    19    10    11   ar
    20    11    12   ar
    21    12    13   ar
    22    23    24   ar
    23    24    25   ar
    24    25    20   ar
    25     7     2   ar
    26    13     8   ar
    27    16    17    1
