@<TRIPOS>MOLECULE
*****
 35 39 0 0 0
SMALL
GASTEIGER

@<TRIPOS>ATOM
      1 C         140.9140  144.9102  159.5441 C.ar    1  UNL1        0.0644
      2 C         140.9631  145.7136  158.2784 C.ar    1  UNL1        0.0155
      3 C         140.1863  145.2664  157.0756 C.ar    1  UNL1       -0.0032
      4 C         139.3604  144.0158  157.1386 C.ar    1  UNL1       -0.0246
      5 C         139.3113  143.2125  158.4043 C.ar    1  UNL1       -0.0234
      6 C         140.0880  143.6596  159.6071 C.ar    1  UNL1        0.0113
      7 C         138.5572  141.9452  158.6790 C.3     1  UNL1        0.0434
      8 C         137.6660  141.1684  157.7557 C.3     1  UNL1        0.0771
      9 N         137.3089  141.4669  156.3299 N.3     1  UNL1       -0.2671
     10 C         137.7546  142.6161  155.4750 C.3     1  UNL1        0.0771
     11 C         138.6676  143.7504  155.8349 C.3     1  UNL1        0.0434
     12 N         141.6907  145.3574  160.7469 N.pl3   1  UNL1       -0.2150
     13 H         142.3803  146.0543  160.6564 H       1  UNL1        0.1737
     14 O         142.5795  143.8139  161.8991 O.2     1  UNL1       -0.1499
     15 S         141.4169  144.7428  162.0875 S.O2    1  UNL1        0.0751
     16 O         140.2543  145.6718  162.2759 O.2     1  UNL1       -0.1499
     17 C         141.1431  144.1282  163.4282 C.ar    1  UNL1        0.1443
     18 C         139.8518  144.4155  164.1353 C.ar    1  UNL1        0.0246
     19 C         139.5780  143.8009  165.4759 C.ar    1  UNL1        0.0357
     20 C         140.5955  142.8991  166.1095 C.ar    1  UNL1        0.1319
     21 N         141.8868  142.6118  165.4024 N.ar    1  UNL1       -0.2278
     22 C         142.1606  143.2263  164.0617 C.ar    1  UNL1        0.1204
     23 N         140.3217  142.2844  167.4501 N.pl3   1  UNL1       -0.2881
     24 C         139.8942  140.8497  167.5441 C.3     1  UNL1        0.1242
     25 C         139.6205  140.2350  168.8847 C.3     1  UNL1        0.1636
     26 O         139.7742  141.0550  170.1313 O.3     1  UNL1       -0.3501
     27 C         140.2018  142.4898  170.0372 C.3     1  UNL1        0.1636
     28 C         140.4755  143.1044  168.6967 C.3     1  UNL1        0.1242
     29 C         136.3836  140.4867  155.6718 C.3     1  UNL1        0.1180
     30 C         134.9222  140.4914  156.0101 C.ar    1  UNL1        0.0693
     31 C         133.8399  141.1827  155.2349 C.ar    1  UNL1        0.0379
     32 C         132.5354  140.9240  155.9287 C.ar    1  UNL1        0.1211
     33 N         132.8114  140.0729  157.1326 N.ar    1  UNL1       -0.1713
     34 N         134.2865  139.8054  157.1829 N.ar    1  UNL1       -0.2784
     35 H         134.7552  139.2732  157.8658 H       1  UNL1        0.1886
@<TRIPOS>BOND
     1    14    15    2
     2    15    16    2
     3    15    12    1
     4    12     1    1
     5     1     2   ar
     6     2     3   ar
     7     3     4   ar
     8     4     5   ar
     9     5     6   ar
    10     5     7    1
    11     7     8    1
    12     8     9    1
    13     9    29    1
    14    29    30    1
    15    30    31   ar
    16    31    32   ar
    17    32    33   ar
    18    33    34   ar
    19     9    10    1
    20    10    11    1
    21    15    17    1
    22    17    18   ar
    23    18    19   ar
    24    19    20   ar
    25    20    23    1
    26    23    24    1
    27    24    25    1
    28    25    26    1
    29    26    27    1
    30    27    28    1
    31    20    21   ar
    32    21    22   ar
    33     6     1   ar
    34    34    30   ar
    35    22    17   ar
    36    11     4    1
    37    28    23    1
    38    12    13    1
    39    34    35    1
@<TRIPOS>MOLECULE
*****
 35 39 0 0 0
SMALL
GASTEIGER

@<TRIPOS>ATOM
      1 C         141.2504  137.7089  163.3314 C.ar    1  UNL1        0.0644
      2 C         139.7584  137.8284  163.4299 C.ar    1  UNL1        0.0155
      3 C         139.1337  138.4382  164.6497 C.ar    1  UNL1       -0.0032
      4 C         140.0011  138.9286  165.7710 C.ar    1  UNL1       -0.0246
      5 C         141.4930  138.8092  165.6724 C.ar    1  UNL1       -0.0234
      6 C         142.1177  138.1993  164.4527 C.ar    1  UNL1        0.0113
      7 C         142.5328  139.2313  166.6678 C.3     1  UNL1        0.0434
      8 C         142.3373  139.8773  168.0075 C.3     1  UNL1        0.0771
      9 N         141.0540  140.2605  168.6826 N.3     1  UNL1       -0.2671
     10 C         139.6489  140.0925  168.1849 C.3     1  UNL1        0.0771
     11 C         139.1803  139.4998  166.8891 C.3     1  UNL1        0.0434
     12 N         141.8750  137.0991  162.1116 N.pl3   1  UNL1       -0.2150
     13 H         141.9392  136.1202  162.0285 H       1  UNL1        0.1737
     14 O         141.0063  138.1774  160.5045 O.2     1  UNL1       -0.1499
     15 S         142.4018  137.9807  161.0184 S.O2    1  UNL1        0.0751
     16 O         143.7973  137.7841  161.5322 O.2     1  UNL1       -0.1499
     17 C         142.9286  138.8624  159.9251 C.ar    1  UNL1        0.1443
     18 C         143.4330  140.2376  160.2482 C.ar    1  UNL1        0.0246
     19 C         143.9598  141.1192  159.1549 C.ar    1  UNL1        0.0357
     20 C         143.9822  140.6257  157.7386 C.ar    1  UNL1        0.1319
     21 N         143.4778  139.2505  157.4155 N.ar    1  UNL1       -0.2278
     22 C         142.9510  138.3688  158.5088 C.ar    1  UNL1        0.1204
     23 N         144.5090  141.5073  156.6453 N.pl3   1  UNL1       -0.2881
     24 C         143.5824  142.4376  155.9202 C.3     1  UNL1        0.1242
     25 C         144.1091  143.3193  154.8268 C.3     1  UNL1        0.1636
     26 O         145.5624  143.2705  154.4587 O.3     1  UNL1       -0.3501
     27 C         146.4890  142.3401  155.1839 C.3     1  UNL1        0.1636
     28 C         145.9622  141.4586  156.2771 C.3     1  UNL1        0.1242
     29 C         141.1940  140.8957  170.0342 C.3     1  UNL1        0.1180
     30 C         140.6294  142.2630  170.2825 C.ar    1  UNL1        0.0693
     31 C         141.0677  143.5326  169.6148 C.ar    1  UNL1        0.0379
     32 C         140.2364  144.6550  170.1618 C.ar    1  UNL1        0.1211
     33 N         139.2843  144.0791  171.1677 N.ar    1  UNL1       -0.1713
     34 N         139.5271  142.6007  171.2423 N.ar    1  UNL1       -0.2784
     35 H         139.0473  141.9639  171.8198 H       1  UNL1        0.1886
@<TRIPOS>BOND
     1    14    15    2
     2    15    16    2
     3    15    12    1
     4    12     1    1
     5     1     2   ar
     6     2     3   ar
     7     3     4   ar
     8     4     5   ar
     9     5     6   ar
    10     5     7    1
    11     7     8    1
    12     8     9    1
    13     9    29    1
    14    29    30    1
    15    30    31   ar
    16    31    32   ar
    17    32    33   ar
    18    33    34   ar
    19     9    10    1
    20    10    11    1
    21    15    17    1
    22    17    18   ar
    23    18    19   ar
    24    19    20   ar
    25    20    23    1
    26    23    24    1
    27    24    25    1
    28    25    26    1
    29    26    27    1
    30    27    28    1
    31    20    21   ar
    32    21    22   ar
    33     6     1   ar
    34    34    30   ar
    35    22    17   ar
    36    11     4    1
    37    28    23    1
    38    12    13    1
    39    34    35    1
@<TRIPOS>MOLECULE
*****
 35 39 0 0 0
SMALL
GASTEIGER

@<TRIPOS>ATOM
      1 C         140.8855  139.5501  165.4284 C.ar    1  UNL1        0.0644
      2 C         139.9310  138.5880  164.7856 C.ar    1  UNL1        0.0155
      3 C         138.7211  138.1169  165.5369 C.ar    1  UNL1       -0.0032
      4 C         138.4659  138.6080  166.9312 C.ar    1  UNL1       -0.0246
      5 C         139.4204  139.5700  167.5739 C.ar    1  UNL1       -0.0234
      6 C         140.6302  140.0411  166.8227 C.ar    1  UNL1        0.0113
      7 C         139.3543  140.1790  168.9432 C.3     1  UNL1        0.0434
      8 C         138.3172  139.9761  170.0079 C.3     1  UNL1        0.0771
      9 N         137.0903  139.1143  169.9661 N.3     1  UNL1       -0.2671
     10 C         136.5972  138.2425  168.8495 C.3     1  UNL1        0.0771
     11 C         137.2094  138.0171  167.4988 C.3     1  UNL1        0.0434
     12 N         142.0952  140.0211  164.6771 N.pl3   1  UNL1       -0.2150
     13 H         142.7783  140.5634  165.1339 H       1  UNL1        0.1737
     14 O         141.4796  140.8834  162.8392 O.2     1  UNL1       -0.1499
     15 S         142.2643  139.6660  163.2295 S.O2    1  UNL1        0.0751
     16 O         143.0490  138.4487  163.6198 O.2     1  UNL1       -0.1499
     17 C         142.4334  139.3109  161.7820 C.ar    1  UNL1        0.1443
     18 C         141.2730  138.7663  161.0029 C.ar    1  UNL1        0.0246
     19 C         141.4421  138.4113  159.5554 C.ar    1  UNL1        0.0357
     20 C         142.7715  138.6007  158.8869 C.ar    1  UNL1        0.1319
     21 N         143.9319  139.1452  159.6661 N.ar    1  UNL1       -0.2278
     22 C         143.7628  139.5004  161.1136 C.ar    1  UNL1        0.1204
     23 N         142.9406  138.2456  157.4394 N.pl3   1  UNL1       -0.2881
     24 C         142.8562  136.8126  157.0040 C.3     1  UNL1        0.1242
     25 C         143.0253  136.4575  155.5565 C.3     1  UNL1        0.1636
     26 O         143.2789  137.5352  154.5444 O.3     1  UNL1       -0.3501
     27 C         143.3633  138.9682  154.9800 C.3     1  UNL1        0.1636
     28 C         143.1942  139.3233  156.4274 C.3     1  UNL1        0.1242
     29 C         136.2444  139.1258  171.2048 C.3     1  UNL1        0.1180
     30 C         136.1306  137.8897  172.0469 C.ar    1  UNL1        0.0693
     31 C         135.1239  137.6525  173.1334 C.ar    1  UNL1        0.0379
     32 C         135.3747  136.2900  173.7082 C.ar    1  UNL1        0.1211
     33 N         136.5363  135.6849  172.9771 N.ar    1  UNL1       -0.1713
     34 N         137.0036  136.6737  171.9503 N.ar    1  UNL1       -0.2784
     35 H         137.7517  136.5467  171.3231 H       1  UNL1        0.1886
@<TRIPOS>BOND
     1    14    15    2
     2    15    16    2
     3    15    12    1
     4    12     1    1
     5     1     2   ar
     6     2     3   ar
     7     3     4   ar
     8     4     5   ar
     9     5     6   ar
    10     5     7    1
    11     7     8    1
    12     8     9    1
    13     9    29    1
    14    29    30    1
    15    30    31   ar
    16    31    32   ar
    17    32    33   ar
    18    33    34   ar
    19     9    10    1
    20    10    11    1
    21    15    17    1
    22    17    18   ar
    23    18    19   ar
    24    19    20   ar
    25    20    23    1
    26    23    24    1
    27    24    25    1
    28    25    26    1
    29    26    27    1
    30    27    28    1
    31    20    21   ar
    32    21    22   ar
    33     6     1   ar
    34    34    30   ar
    35    22    17   ar
    36    11     4    1
    37    28    23    1
    38    12    13    1
    39    34    35    1
@<TRIPOS>MOLECULE
*****
 35 39 0 0 0
SMALL
GASTEIGER

@<TRIPOS>ATOM
      1 C         142.2779  144.5082  162.1574 C.ar    1  UNL1        0.0644
      2 C         143.6437  144.6464  162.7618 C.ar    1  UNL1        0.0155
      3 C         143.9727  143.9370  164.0420 C.ar    1  UNL1       -0.0032
      4 C         142.9357  143.0895  164.7177 C.ar    1  UNL1       -0.0246
      5 C         141.5700  142.9514  164.1132 C.ar    1  UNL1       -0.0234
      6 C         141.2410  143.6607  162.8331 C.ar    1  UNL1        0.0113
      7 C         140.3987  142.1625  164.6192 C.3     1  UNL1        0.0434
      8 C         140.3042  141.3169  165.8546 C.3     1  UNL1        0.0771
      9 N         141.3574  141.0515  166.8890 N.3     1  UNL1       -0.2671
     10 C         142.7653  141.5659  166.9437 C.3     1  UNL1        0.0771
     11 C         143.4678  142.4730  165.9773 C.3     1  UNL1        0.0434
     12 N         141.9490  145.2175  160.8773 N.pl3   1  UNL1       -0.2150
     13 H         142.3799  146.0771  160.6661 H       1  UNL1        0.1737
     14 O         139.9281  145.6072  160.3632 O.2     1  UNL1       -0.1499
     15 S         140.9636  144.6170  159.9190 S.O2    1  UNL1        0.0751
     16 O         141.9991  143.6268  159.4748 O.2     1  UNL1       -0.1499
     17 C         139.9782  144.0165  158.9606 C.ar    1  UNL1        0.1443
     18 C         139.9320  144.4895  157.5379 C.ar    1  UNL1        0.0246
     19 C         138.9466  143.8889  156.5796 C.ar    1  UNL1        0.0357
     20 C         138.0075  142.8154  157.0439 C.ar    1  UNL1        0.1319
     21 N         138.0537  142.3424  158.4666 N.ar    1  UNL1       -0.2278
     22 C         139.0391  142.9429  159.4250 C.ar    1  UNL1        0.1204
     23 N         137.0221  142.2149  156.0856 N.pl3   1  UNL1       -0.2881
     24 C         136.8245  142.8278  154.7309 C.3     1  UNL1        0.1242
     25 C         135.8391  142.2272  153.7725 C.3     1  UNL1        0.1636
     26 O         135.0513  141.0139  154.1689 O.3     1  UNL1       -0.3501
     27 C         135.2489  140.4010  155.5238 C.3     1  UNL1        0.1636
     28 C         136.2343  141.0015  156.4820 C.3     1  UNL1        0.1242
     29 C         140.9486  140.1527  168.0182 C.3     1  UNL1        0.1180
     30 C         140.7492  140.7187  169.3930 C.ar    1  UNL1        0.0693
     31 C         140.2941  142.1111  169.7158 C.ar    1  UNL1        0.0379
     32 C         140.2336  142.2445  171.2086 C.ar    1  UNL1        0.1211
     33 N         140.6513  140.9347  171.8085 N.ar    1  UNL1       -0.1713
     34 N         140.9700  139.9916  170.6863 N.ar    1  UNL1       -0.2784
     35 H         141.2712  139.0591  170.7819 H       1  UNL1        0.1886
@<TRIPOS>BOND
     1    14    15    2
     2    15    16    2
     3    15    12    1
     4    12     1    1
     5     1     2   ar
     6     2     3   ar
     7     3     4   ar
     8     4     5   ar
     9     5     6   ar
    10     5     7    1
    11     7     8    1
    12     8     9    1
    13     9    29    1
    14    29    30    1
    15    30    31   ar
    16    31    32   ar
    17    32    33   ar
    18    33    34   ar
    19     9    10    1
    20    10    11    1
    21    15    17    1
    22    17    18   ar
    23    18    19   ar
    24    19    20   ar
    25    20    23    1
    26    23    24    1
    27    24    25    1
    28    25    26    1
    29    26    27    1
    30    27    28    1
    31    20    21   ar
    32    21    22   ar
    33     6     1   ar
    34    34    30   ar
    35    22    17   ar
    36    11     4    1
    37    28    23    1
    38    12    13    1
    39    34    35    1
@<TRIPOS>MOLECULE
*****
 35 39 0 0 0
SMALL
GASTEIGER

@<TRIPOS>ATOM
      1 C         140.0962  138.0093  162.8917 C.ar    1  UNL1        0.0644
      2 C         141.5448  137.6208  162.9201 C.ar    1  UNL1        0.0155
      3 C         142.3709  137.8948  164.1418 C.ar    1  UNL1       -0.0032
      4 C         141.7483  138.5573  165.3350 C.ar    1  UNL1       -0.0246
      5 C         140.2999  138.9457  165.3065 C.ar    1  UNL1       -0.0234
      6 C         139.4738  138.6717  164.0849 C.ar    1  UNL1        0.0113
      7 C         139.4886  139.6107  166.3788 C.3     1  UNL1        0.0434
      8 C         139.9256  140.0514  167.7445 C.3     1  UNL1        0.0771
      9 N         141.2816  139.9360  168.3750 N.3     1  UNL1       -0.2671
     10 C         142.5357  139.3514  167.7958 C.3     1  UNL1        0.0771
     11 C         142.7435  138.7378  166.4428 C.3     1  UNL1        0.0434
     12 N         139.2702  137.7352  161.6700 N.pl3   1  UNL1       -0.2150
     13 H         138.8604  136.8493  161.5414 H       1  UNL1        0.1737
     14 O         140.3974  138.4775  160.0334 O.2     1  UNL1       -0.1499
     15 S         139.0686  138.8109  160.6442 S.O2    1  UNL1        0.0751
     16 O         137.7397  139.1443  161.2550 O.2     1  UNL1       -0.1499
     17 C         138.8669  139.8867  159.6184 C.ar    1  UNL1        0.1443
     18 C         139.1248  139.5988  158.1691 C.ar    1  UNL1        0.0246
     19 C         138.9232  140.6745  157.1434 C.ar    1  UNL1        0.0357
     20 C         138.4637  142.0381  157.5669 C.ar    1  UNL1        0.1319
     21 N         138.2058  142.3261  159.0163 N.ar    1  UNL1       -0.2278
     22 C         138.4074  141.2503  160.0421 C.ar    1  UNL1        0.1204
     23 N         138.2621  143.1139  156.5413 N.pl3   1  UNL1       -0.2881
     24 C         137.0834  143.0558  155.6153 C.3     1  UNL1        0.1242
     25 C         136.8817  144.1315  154.5896 C.3     1  UNL1        0.1636
     26 O         137.8586  145.2654  154.4898 O.3     1  UNL1       -0.3501
     27 C         139.0373  145.3235  155.4158 C.3     1  UNL1        0.1636
     28 C         139.2389  144.2478  156.4415 C.3     1  UNL1        0.1242
     29 C         141.3992  140.4766  169.7692 C.3     1  UNL1        0.1180
     30 C         140.8040  141.8110  170.1089 C.ar    1  UNL1        0.0693
     31 C         141.2218  143.1338  169.5383 C.ar    1  UNL1        0.0379
     32 C         140.3625  144.1970  170.1557 C.ar    1  UNL1        0.1211
     33 N         139.4137  143.5315  171.1078 N.ar    1  UNL1       -0.1713
     34 N         139.6865  142.0567  171.0790 N.ar    1  UNL1       -0.2784
     35 H         139.2149  141.3706  171.6044 H       1  UNL1        0.1886
@<TRIPOS>BOND
     1    14    15    2
     2    15    16    2
     3    15    12    1
     4    12     1    1
     5     1     2   ar
     6     2     3   ar
     7     3     4   ar
     8     4     5   ar
     9     5     6   ar
    10     5     7    1
    11     7     8    1
    12     8     9    1
    13     9    29    1
    14    29    30    1
    15    30    31   ar
    16    31    32   ar
    17    32    33   ar
    18    33    34   ar
    19     9    10    1
    20    10    11    1
    21    15    17    1
    22    17    18   ar
    23    18    19   ar
    24    19    20   ar
    25    20    23    1
    26    23    24    1
    27    24    25    1
    28    25    26    1
    29    26    27    1
    30    27    28    1
    31    20    21   ar
    32    21    22   ar
    33     6     1   ar
    34    34    30   ar
    35    22    17   ar
    36    11     4    1
    37    28    23    1
    38    12    13    1
    39    34    35    1
@<TRIPOS>MOLECULE
*****
 35 39 0 0 0
SMALL
GASTEIGER

@<TRIPOS>ATOM
      1 C         139.3534  138.6992  162.5303 C.ar    1  UNL1        0.0644
      2 C         138.9491  137.6312  163.5030 C.ar    1  UNL1        0.0155
      3 C         138.9528  137.9175  164.9754 C.ar    1  UNL1       -0.0032
      4 C         139.3607  139.2717  165.4751 C.ar    1  UNL1       -0.0246
      5 C         139.7650  140.3395  164.5025 C.ar    1  UNL1       -0.0234
      6 C         139.7613  140.0534  163.0301 C.ar    1  UNL1        0.0113
      7 C         140.2029  141.7459  164.7862 C.3     1  UNL1        0.0434
      8 C         140.3446  142.4317  166.1128 C.3     1  UNL1        0.0771
      9 N         140.0835  141.8804  167.4831 N.3     1  UNL1       -0.2671
     10 C         139.6161  140.5073  167.8655 C.3     1  UNL1        0.0771
     11 C         139.2945  139.3463  166.9718 C.3     1  UNL1        0.0434
     12 N         139.3497  138.4128  161.0579 N.pl3   1  UNL1       -0.2150
     13 H         138.6154  137.8918  160.6596 H       1  UNL1        0.1737
     14 O         141.4233  137.9992  160.8871 O.2     1  UNL1       -0.1499
     15 S         140.4647  138.9204  160.1924 S.O2    1  UNL1        0.0751
     16 O         139.5062  139.8416  159.4977 O.2     1  UNL1       -0.1499
     17 C         141.5798  139.4279  159.3269 C.ar    1  UNL1        0.1443
     18 C         141.2767  140.0111  157.9785 C.ar    1  UNL1        0.0246
     19 C         142.3918  140.5186  157.1131 C.ar    1  UNL1        0.0357
     20 C         143.8099  140.4430  157.5959 C.ar    1  UNL1        0.1319
     21 N         144.1130  139.8599  158.9443 N.ar    1  UNL1       -0.2278
     22 C         142.9980  139.3523  159.8098 C.ar    1  UNL1        0.1204
     23 N         144.9250  140.9506  156.7305 N.pl3   1  UNL1       -0.2881
     24 C         145.1344  140.3732  155.3620 C.3     1  UNL1        0.1242
     25 C         146.2495  140.8807  154.4965 C.3     1  UNL1        0.1636
     26 O         147.1552  141.9655  154.9995 O.3     1  UNL1       -0.3501
     27 C         146.9457  142.5428  156.3681 C.3     1  UNL1        0.1636
     28 C         145.8307  142.0353  157.2335 C.3     1  UNL1        0.1242
     29 C         140.3212  142.8276  168.6217 C.3     1  UNL1        0.1180
     30 C         141.6638  142.8767  169.2888 C.ar    1  UNL1        0.0693
     31 C         142.8779  142.0935  168.8854 C.ar    1  UNL1        0.0379
     32 C         143.9925  142.4505  169.8237 C.ar    1  UNL1        0.1211
     33 N         143.4674  143.4542  170.8068 N.ar    1  UNL1       -0.1713
     34 N         142.0281  143.7177  170.4763 N.ar    1  UNL1       -0.2784
     35 H         141.4279  144.3343  170.9547 H       1  UNL1        0.1886
@<TRIPOS>BOND
     1    14    15    2
     2    15    16    2
     3    15    12    1
     4    12     1    1
     5     1     2   ar
     6     2     3   ar
     7     3     4   ar
     8     4     5   ar
     9     5     6   ar
    10     5     7    1
    11     7     8    1
    12     8     9    1
    13     9    29    1
    14    29    30    1
    15    30    31   ar
    16    31    32   ar
    17    32    33   ar
    18    33    34   ar
    19     9    10    1
    20    10    11    1
    21    15    17    1
    22    17    18   ar
    23    18    19   ar
    24    19    20   ar
    25    20    23    1
    26    23    24    1
    27    24    25    1
    28    25    26    1
    29    26    27    1
    30    27    28    1
    31    20    21   ar
    32    21    22   ar
    33     6     1   ar
    34    34    30   ar
    35    22    17   ar
    36    11     4    1
    37    28    23    1
    38    12    13    1
    39    34    35    1
@<TRIPOS>MOLECULE
*****
 35 39 0 0 0
SMALL
GASTEIGER

@<TRIPOS>ATOM
      1 C         144.6229  142.3350  160.6552 C.ar    1  UNL1        0.0644
      2 C         145.0060  142.9062  159.3221 C.ar    1  UNL1        0.0155
      3 C         144.6862  142.1545  158.0641 C.ar    1  UNL1       -0.0032
      4 C         143.9832  140.8315  158.1391 C.ar    1  UNL1       -0.0246
      5 C         143.6001  140.2603  159.4721 C.ar    1  UNL1       -0.0234
      6 C         143.9199  141.0120  160.7301 C.ar    1  UNL1        0.0113
      7 C         142.8995  138.9676  159.7693 C.3     1  UNL1        0.0434
      8 C         142.4090  137.9269  158.8067 C.3     1  UNL1        0.0771
      9 N         142.4980  137.9219  157.3095 N.3     1  UNL1       -0.2671
     10 C         143.0994  138.9563  156.4047 C.3     1  UNL1        0.0771
     11 C         143.7603  140.2512  156.7740 C.3     1  UNL1        0.0434
     12 N         144.9428  143.0867  161.9131 N.pl3   1  UNL1       -0.2150
     13 H         145.6973  143.7189  161.9304 H       1  UNL1        0.1737
     14 O         145.2237  142.0730  163.7553 O.2     1  UNL1       -0.1499
     15 S         144.1130  142.8753  163.1447 S.O2    1  UNL1        0.0751
     16 O         143.0024  143.6776  162.5341 O.2     1  UNL1       -0.1499
     17 C         143.2832  142.6639  164.3763 C.ar    1  UNL1        0.1443
     18 C         143.9111  142.0985  165.6157 C.ar    1  UNL1        0.0246
     19 C         143.0812  141.8871  166.8472 C.ar    1  UNL1        0.0357
     20 C         141.6236  142.2411  166.8394 C.ar    1  UNL1        0.1319
     21 N         140.9958  142.8064  165.6000 N.ar    1  UNL1       -0.2278
     22 C         141.8256  143.0179  164.3684 C.ar    1  UNL1        0.1204
     23 N         140.7938  142.0297  168.0709 N.pl3   1  UNL1       -0.2881
     24 C         140.6750  143.1223  169.0918 C.3     1  UNL1        0.1242
     25 C         139.8451  142.9110  170.3234 C.3     1  UNL1        0.1636
     26 O         139.1341  141.6071  170.5341 O.3     1  UNL1       -0.3501
     27 C         139.2530  140.5145  169.5131 C.3     1  UNL1        0.1636
     28 C         140.0828  140.7259  168.2817 C.3     1  UNL1        0.1242
     29 C         141.9075  136.7241  156.6264 C.3     1  UNL1        0.1180
     30 C         140.6022  136.8442  155.8971 C.ar    1  UNL1        0.0693
     31 C         140.4127  136.7720  154.4108 C.ar    1  UNL1        0.0379
     32 C         138.9507  136.9408  154.1213 C.ar    1  UNL1        0.1211
     33 N         138.2365  137.1172  155.4284 N.ar    1  UNL1       -0.1713
     34 N         139.2572  137.0575  156.5261 N.ar    1  UNL1       -0.2784
     35 H         139.0761  137.1432  157.4900 H       1  UNL1        0.1886
@<TRIPOS>BOND
     1    14    15    2
     2    15    16    2
     3    15    12    1
     4    12     1    1
     5     1     2   ar
     6     2     3   ar
     7     3     4   ar
     8     4     5   ar
     9     5     6   ar
    10     5     7    1
    11     7     8    1
    12     8     9    1
    13     9    29    1
    14    29    30    1
    15    30    31   ar
    16    31    32   ar
    17    32    33   ar
    18    33    34   ar
    19     9    10    1
    20    10    11    1
    21    15    17    1
    22    17    18   ar
    23    18    19   ar
    24    19    20   ar
    25    20    23    1
    26    23    24    1
    27    24    25    1
    28    25    26    1
    29    26    27    1
    30    27    28    1
    31    20    21   ar
    32    21    22   ar
    33     6     1   ar
    34    34    30   ar
    35    22    17   ar
    36    11     4    1
    37    28    23    1
    38    12    13    1
    39    34    35    1
@<TRIPOS>MOLECULE
*****
 35 39 0 0 0
SMALL
GASTEIGER

@<TRIPOS>ATOM
      1 C         143.8066  139.4551  161.8592 C.ar    1  UNL1        0.0644
      2 C         143.8451  140.9544  161.8326 C.ar    1  UNL1        0.0155
      3 C         143.6465  141.7324  163.0997 C.ar    1  UNL1       -0.0032
      4 C         143.4095  141.0110  164.3933 C.ar    1  UNL1       -0.0246
      5 C         143.3710  139.5118  164.4199 C.ar    1  UNL1       -0.0234
      6 C         143.5696  138.7338  163.1529 C.ar    1  UNL1        0.0113
      7 C         143.1503  138.6025  165.5923 C.3     1  UNL1        0.0434
      8 C         142.9137  138.9680  167.0278 C.3     1  UNL1        0.0771
      9 N         142.8392  140.3329  167.6452 N.3     1  UNL1       -0.2671
     10 C         142.9830  141.6696  166.9798 C.3     1  UNL1        0.0771
     11 C         143.2368  141.9713  165.5326 C.3     1  UNL1        0.0434
     12 N         144.0052  138.6773  160.5922 N.pl3   1  UNL1       -0.2150
     13 H         144.8328  138.1619  160.4555 H       1  UNL1        0.1737
     14 O         142.0018  137.9901  160.4725 O.2     1  UNL1       -0.1499
     15 S         142.9428  138.6847  159.5333 S.O2    1  UNL1        0.0751
     16 O         143.8838  139.3792  158.5940 O.2     1  UNL1       -0.1499
     17 C         141.8804  138.6921  158.4744 C.ar    1  UNL1        0.1443
     18 C         142.2661  138.6840  157.0248 C.ar    1  UNL1        0.0246
     19 C         141.2037  138.6914  155.9660 C.ar    1  UNL1        0.0357
     20 C         139.7555  138.7070  156.3566 C.ar    1  UNL1        0.1319
     21 N         139.3698  138.7151  157.8062 N.ar    1  UNL1       -0.2278
     22 C         140.4322  138.7077  158.8651 C.ar    1  UNL1        0.1204
     23 N         138.6931  138.7144  155.2978 N.pl3   1  UNL1       -0.2881
     24 C         138.0106  139.9984  154.9293 C.3     1  UNL1        0.1242
     25 C         136.9481  140.0059  153.8705 C.3     1  UNL1        0.1636
     26 O         136.5680  138.7295  153.1802 O.3     1  UNL1       -0.3501
     27 C         137.2506  137.4456  153.5488 C.3     1  UNL1        0.1636
     28 C         138.3130  137.4381  154.6075 C.3     1  UNL1        0.1242
     29 C         142.5877  140.3656  169.1236 C.3     1  UNL1        0.1180
     30 C         141.1945  140.1912  169.6515 C.ar    1  UNL1        0.0693
     31 C         139.9523  140.8110  169.0832 C.ar    1  UNL1        0.0379
     32 C         138.7890  140.3692  169.9208 C.ar    1  UNL1        0.1211
     33 N         139.3122  139.4765  171.0068 N.ar    1  UNL1       -0.1713
     34 N         140.7989  139.3665  170.8404 N.ar    1  UNL1       -0.2784
     35 H         141.4081  138.8446  171.4112 H       1  UNL1        0.1886
@<TRIPOS>BOND
     1    14    15    2
     2    15    16    2
     3    15    12    1
     4    12     1    1
     5     1     2   ar
     6     2     3   ar
     7     3     4   ar
     8     4     5   ar
     9     5     6   ar
    10     5     7    1
    11     7     8    1
    12     8     9    1
    13     9    29    1
    14    29    30    1
    15    30    31   ar
    16    31    32   ar
    17    32    33   ar
    18    33    34   ar
    19     9    10    1
    20    10    11    1
    21    15    17    1
    22    17    18   ar
    23    18    19   ar
    24    19    20   ar
    25    20    23    1
    26    23    24    1
    27    24    25    1
    28    25    26    1
    29    26    27    1
    30    27    28    1
    31    20    21   ar
    32    21    22   ar
    33     6     1   ar
    34    34    30   ar
    35    22    17   ar
    36    11     4    1
    37    28    23    1
    38    12    13    1
    39    34    35    1
@<TRIPOS>MOLECULE
*****
 35 39 0 0 0
SMALL
GASTEIGER

@<TRIPOS>ATOM
      1 C         138.2124  140.7406  158.1523 C.ar    1  UNL1        0.0644
      2 C         136.9803  140.7025  157.2978 C.ar    1  UNL1        0.0155
      3 C         136.6800  141.8371  156.3636 C.ar    1  UNL1       -0.0032
      4 C         137.6119  143.0098  156.2841 C.ar    1  UNL1       -0.0246
      5 C         138.8440  143.0479  157.1386 C.ar    1  UNL1       -0.0234
      6 C         139.1443  141.9134  158.0728 C.ar    1  UNL1        0.0113
      7 C         139.8974  144.1132  157.2139 C.3     1  UNL1        0.0434
      8 C         139.9787  145.4034  156.4531 C.3     1  UNL1        0.0771
      9 N         139.0268  145.9470  155.4294 N.3     1  UNL1       -0.2671
     10 C         137.7584  145.3347  154.9133 C.3     1  UNL1        0.0771
     11 C         137.1287  144.0275  155.2937 C.3     1  UNL1        0.0434
     12 N         138.5127  139.6060  159.0864 N.pl3   1  UNL1       -0.2150
     13 H         138.5437  138.6829  158.7457 H       1  UNL1        0.1737
     14 O         140.2254  139.5973  160.3381 O.2     1  UNL1       -0.1499
     15 S         138.7657  139.8780  160.5397 S.O2    1  UNL1        0.0751
     16 O         137.3060  140.1587  160.7413 O.2     1  UNL1       -0.1499
     17 C         139.0187  140.1500  161.9930 C.ar    1  UNL1        0.1443
     18 C         137.8683  140.2315  162.9521 C.ar    1  UNL1        0.0246
     19 C         138.1214  140.5035  164.4054 C.ar    1  UNL1        0.0357
     20 C         139.5248  140.6939  164.8996 C.ar    1  UNL1        0.1319
     21 N         140.6752  140.6123  163.9404 N.ar    1  UNL1       -0.2278
     22 C         140.4222  140.3404  162.4871 C.ar    1  UNL1        0.1204
     23 N         139.7779  140.9658  166.3528 N.pl3   1  UNL1       -0.2881
     24 C         140.3916  142.2674  166.7764 C.3     1  UNL1        0.1242
     25 C         140.6448  142.5395  168.2296 C.3     1  UNL1        0.1636
     26 O         140.2842  141.5100  169.2593 O.3     1  UNL1       -0.3501
     27 C         139.6705  140.2084  168.8357 C.3     1  UNL1        0.1636
     28 C         139.4174  139.9364  167.3825 C.3     1  UNL1        0.1242
     29 C         139.3915  147.2791  154.8441 C.3     1  UNL1        0.1180
     30 C         139.0143  148.5418  155.5607 C.ar    1  UNL1        0.0693
     31 C         139.0365  149.9250  154.9808 C.ar    1  UNL1        0.0379
     32 C         138.5846  150.8809  156.0447 C.ar    1  UNL1        0.1211
     33 N         138.2832  150.0886  157.2822 N.ar    1  UNL1       -0.1713
     34 N         138.5487  148.6429  156.9831 N.ar    1  UNL1       -0.2784
     35 H         138.4371  147.8922  157.6101 H       1  UNL1        0.1886
@<TRIPOS>BOND
     1    14    15    2
     2    15    16    2
     3    15    12    1
     4    12     1    1
     5     1     2   ar
     6     2     3   ar
     7     3     4   ar
     8     4     5   ar
     9     5     6   ar
    10     5     7    1
    11     7     8    1
    12     8     9    1
    13     9    29    1
    14    29    30    1
    15    30    31   ar
    16    31    32   ar
    17    32    33   ar
    18    33    34   ar
    19     9    10    1
    20    10    11    1
    21    15    17    1
    22    17    18   ar
    23    18    19   ar
    24    19    20   ar
    25    20    23    1
    26    23    24    1
    27    24    25    1
    28    25    26    1
    29    26    27    1
    30    27    28    1
    31    20    21   ar
    32    21    22   ar
    33     6     1   ar
    34    34    30   ar
    35    22    17   ar
    36    11     4    1
    37    28    23    1
    38    12    13    1
    39    34    35    1
