@<TRIPOS>MOLECULE
*****
 22 24 0 0 0
SMALL
GASTEIGER

@<TRIPOS>ATOM
      1 C         139.5674  141.1779  165.7161 C.ar    1  UNL1       -0.0158
      2 C         138.6659  140.0981  165.1954 C.ar    1  UNL1        0.0050
      3 S         137.8347  140.6808  164.0910 S.2     1  UNL1       -0.0915
      4 C         138.2225  142.1207  163.9293 C.ar    1  UNL1        0.0288
      5 C         137.7389  143.1918  162.9972 C.ar    1  UNL1        0.0065
      6 C         138.3261  144.5702  163.0695 C.ar    1  UNL1        0.0005
      7 C         139.3970  144.8774  164.0738 C.ar    1  UNL1        0.0000
      8 C         139.8806  143.8063  165.0059 C.ar    1  UNL1        0.0002
      9 C         139.2934  142.4280  164.9336 C.ar    1  UNL1        0.0025
     10 C         141.8532  140.2991  166.5839 C.3     1  UNL1        0.0095
     11 C         140.5674  141.0332  166.8248 C.3     1  UNL1        0.0463
     12 C         140.2818  141.6224  168.1742 C.ar    1  UNL1        0.0007
     13 C         140.6757  143.0387  168.4728 C.ar    1  UNL1       -0.0008
     14 C         140.3901  143.6281  169.8223 C.ar    1  UNL1        0.0204
     15 C         139.7105  142.8011  170.8732 C.ar    1  UNL1        0.0989
     16 N         139.3165  141.3849  170.5746 N.ar    1  UNL1       -0.2426
     17 C         139.6022  140.7956  169.2251 C.ar    1  UNL1        0.0949
     18 C         138.6061  138.6839  165.6918 C.3     1  UNL1        0.0499
     19 C         138.8490  137.5459  164.7453 C.3     1  UNL1        0.0774
     20 N         140.0459  137.5645  163.8414 N.3     1  UNL1       -0.2700
     21 C         139.8758  137.8431  162.3773 C.3     1  UNL1        0.0897
     22 C         141.4129  137.3047  164.4016 C.3     1  UNL1        0.0897
@<TRIPOS>BOND
     1    11    10    1
     2    11    12    1
     3    12    13   ar
     4    13    14   ar
     5    14    15   ar
     6    15    16   ar
     7    16    17   ar
     8    11     1    1
     9     1     2   ar
    10     2    18    1
    11    18    19    1
    12    19    20    1
    13    20    21    1
    14    20    22    1
    15     2     3   ar
    16     3     4   ar
    17     4     5   ar
    18     5     6   ar
    19     6     7   ar
    20     7     8   ar
    21     8     9   ar
    22    17    12   ar
    23     9     1   ar
    24     9     4   ar
@<TRIPOS>MOLECULE
*****
 22 24 0 0 0
SMALL
GASTEIGER

@<TRIPOS>ATOM
      1 C         139.8196  140.4218  165.5250 C.ar    1  UNL1       -0.0158
      2 C         138.9500  139.5690  164.6495 C.ar    1  UNL1        0.0050
      3 S         138.0103  140.4731  163.9082 S.2     1  UNL1       -0.0915
      4 C         138.2992  141.8846  164.3255 C.ar    1  UNL1        0.0288
      5 C         137.6885  143.1947  163.9247 C.ar    1  UNL1        0.0065
      6 C         138.1960  144.4731  164.5231 C.ar    1  UNL1        0.0005
      7 C         139.3143  144.4414  165.5223 C.ar    1  UNL1        0.0000
      8 C         139.9250  143.1313  165.9231 C.ar    1  UNL1        0.0002
      9 C         139.4174  141.8529  165.3247 C.ar    1  UNL1        0.0025
     10 C         142.1293  139.2831  165.8702 C.3     1  UNL1        0.0095
     11 C         140.9016  139.9298  166.4401 C.3     1  UNL1        0.0463
     12 C         140.7559  140.0845  167.9249 C.ar    1  UNL1        0.0007
     13 C         139.3907  140.1864  168.5380 C.ar    1  UNL1       -0.0008
     14 C         139.2450  140.3411  170.0229 C.ar    1  UNL1        0.0204
     15 C         140.4646  140.3939  170.8947 C.ar    1  UNL1        0.0989
     16 N         141.8297  140.2920  170.2816 N.ar    1  UNL1       -0.2426
     17 C         141.9754  140.1373  168.7967 C.ar    1  UNL1        0.0949
     18 C         139.0095  138.0745  164.5355 C.3     1  UNL1        0.0499
     19 C         138.9425  137.4221  163.1865 C.3     1  UNL1        0.0774
     20 N         139.9575  137.7644  162.1365 N.3     1  UNL1       -0.2700
     21 C         139.5095  138.2605  160.7937 C.3     1  UNL1        0.0897
     22 C         141.4206  137.6106  162.4293 C.3     1  UNL1        0.0897
@<TRIPOS>BOND
     1    11    10    1
     2    11    12    1
     3    12    13   ar
     4    13    14   ar
     5    14    15   ar
     6    15    16   ar
     7    16    17   ar
     8    11     1    1
     9     1     2   ar
    10     2    18    1
    11    18    19    1
    12    19    20    1
    13    20    21    1
    14    20    22    1
    15     2     3   ar
    16     3     4   ar
    17     4     5   ar
    18     5     6   ar
    19     6     7   ar
    20     7     8   ar
    21     8     9   ar
    22    17    12   ar
    23     9     1   ar
    24     9     4   ar
@<TRIPOS>MOLECULE
*****
 22 24 0 0 0
SMALL
GASTEIGER

@<TRIPOS>ATOM
      1 C         140.5551  140.6801  165.4554 C.ar    1  UNL1       -0.0158
      2 C         139.7423  139.5835  164.8337 C.ar    1  UNL1        0.0050
      3 S         138.4833  140.1911  164.2898 S.2     1  UNL1       -0.0915
      4 C         138.5181  141.6632  164.5753 C.ar    1  UNL1        0.0288
      5 C         137.5493  142.7676  164.2724 C.ar    1  UNL1        0.0065
      6 C         137.8610  144.1741  164.6899 C.ar    1  UNL1        0.0005
      7 C         139.1414  144.4764  165.4104 C.ar    1  UNL1        0.0000
      8 C         140.1103  143.3721  165.7133 C.ar    1  UNL1        0.0002
      9 C         139.7986  141.9655  165.2957 C.ar    1  UNL1        0.0025
     10 C         141.9688  140.0368  167.5383 C.3     1  UNL1        0.0095
     11 C         141.8902  140.5196  166.1202 C.3     1  UNL1        0.0463
     12 C         143.1467  140.8418  165.3670 C.ar    1  UNL1        0.0007
     13 C         143.6206  142.2619  165.2713 C.ar    1  UNL1       -0.0008
     14 C         144.8770  142.5842  164.5181 C.ar    1  UNL1        0.0204
     15 C         145.6597  141.4864  163.8605 C.ar    1  UNL1        0.0989
     16 N         145.1859  140.0665  163.9562 N.ar    1  UNL1       -0.2426
     17 C         143.9294  139.7442  164.7094 C.ar    1  UNL1        0.0949
     18 C         140.1217  138.1338  164.7675 C.3     1  UNL1        0.0499
     19 C         139.7883  137.3261  163.5483 C.3     1  UNL1        0.0774
     20 N         140.3219  137.7364  162.2078 N.3     1  UNL1       -0.2700
     21 C         139.3749  138.1011  161.1032 C.3     1  UNL1        0.0897
     22 C         141.8025  137.7820  161.9720 C.3     1  UNL1        0.0897
@<TRIPOS>BOND
     1    11    10    1
     2    11    12    1
     3    12    13   ar
     4    13    14   ar
     5    14    15   ar
     6    15    16   ar
     7    16    17   ar
     8    11     1    1
     9     1     2   ar
    10     2    18    1
    11    18    19    1
    12    19    20    1
    13    20    21    1
    14    20    22    1
    15     2     3   ar
    16     3     4   ar
    17     4     5   ar
    18     5     6   ar
    19     6     7   ar
    20     7     8   ar
    21     8     9   ar
    22    17    12   ar
    23     9     1   ar
    24     9     4   ar
@<TRIPOS>MOLECULE
*****
 22 24 0 0 0
SMALL
GASTEIGER

@<TRIPOS>ATOM
      1 C         140.1121  140.1019  165.4199 C.ar    1  UNL1       -0.0158
      2 C         139.5936  140.7103  164.1506 C.ar    1  UNL1        0.0050
      3 S         140.7058  140.7010  163.1442 S.2     1  UNL1       -0.0915
      4 C         141.9116  140.0868  163.7914 C.ar    1  UNL1        0.0288
      5 C         143.2963  139.8169  163.2818 C.ar    1  UNL1        0.0065
      6 C         144.3140  139.1768  164.1786 C.ar    1  UNL1        0.0005
      7 C         143.9470  138.8065  165.5852 C.ar    1  UNL1        0.0000
      8 C         142.5623  139.0764  166.0948 C.ar    1  UNL1        0.0002
      9 C         141.5446  139.7166  165.1979 C.ar    1  UNL1        0.0025
     10 C         138.2587  138.8691  166.7599 C.3     1  UNL1        0.0095
     11 C         139.3345  139.9122  166.6885 C.3     1  UNL1        0.0463
     12 C         139.6325  140.7653  167.8856 C.ar    1  UNL1        0.0007
     13 C         140.3080  142.0932  167.7109 C.ar    1  UNL1       -0.0008
     14 C         140.6061  142.9464  168.9081 C.ar    1  UNL1        0.0204
     15 C         140.2286  142.4716  170.2801 C.ar    1  UNL1        0.0989
     16 N         139.5532  141.1438  170.4548 N.ar    1  UNL1       -0.2426
     17 C         139.2551  140.2906  169.2576 C.ar    1  UNL1        0.0949
     18 C         138.2066  141.2357  163.9270 C.3     1  UNL1        0.0499
     19 C         137.7788  142.5215  164.5704 C.3     1  UNL1        0.0774
     20 N         138.3773  143.8210  164.1198 N.3     1  UNL1       -0.2700
     21 C         138.8827  144.8052  165.1327 C.3     1  UNL1        0.0897
     22 C         138.4703  144.1364  162.6563 C.3     1  UNL1        0.0897
@<TRIPOS>BOND
     1    11    10    1
     2    11    12    1
     3    12    13   ar
     4    13    14   ar
     5    14    15   ar
     6    15    16   ar
     7    16    17   ar
     8    11     1    1
     9     1     2   ar
    10     2    18    1
    11    18    19    1
    12    19    20    1
    13    20    21    1
    14    20    22    1
    15     2     3   ar
    16     3     4   ar
    17     4     5   ar
    18     5     6   ar
    19     6     7   ar
    20     7     8   ar
    21     8     9   ar
    22    17    12   ar
    23     9     1   ar
    24     9     4   ar
@<TRIPOS>MOLECULE
*****
 22 24 0 0 0
SMALL
GASTEIGER

@<TRIPOS>ATOM
      1 C         140.5189  142.2155  165.4308 C.ar    1  UNL1       -0.0158
      2 C         139.4263  142.7005  164.5247 C.ar    1  UNL1        0.0050
      3 S         140.0166  143.7113  163.5868 S.2     1  UNL1       -0.0915
      4 C         141.4739  143.8511  163.9132 C.ar    1  UNL1        0.0288
      5 C         142.5584  144.7007  163.3199 C.ar    1  UNL1        0.0065
      6 C         143.9533  144.6259  163.8663 C.ar    1  UNL1        0.0005
      7 C         144.2637  143.7014  165.0060 C.ar    1  UNL1        0.0000
      8 C         143.1793  142.8518  165.5993 C.ar    1  UNL1        0.0002
      9 C         141.7844  142.9266  165.0529 C.ar    1  UNL1        0.0025
     10 C         140.3919  139.7349  166.1929 C.3     1  UNL1        0.0095
     11 C         140.3718  141.1980  166.5231 C.3     1  UNL1        0.0463
     12 C         140.2047  141.6435  167.9456 C.ar    1  UNL1        0.0007
     13 C         140.5604  143.0467  168.3388 C.ar    1  UNL1       -0.0008
     14 C         140.3933  143.4923  169.7613 C.ar    1  UNL1        0.0204
     15 C         139.8704  142.5346  170.7907 C.ar    1  UNL1        0.0989
     16 N         139.5146  141.1315  170.3975 N.ar    1  UNL1       -0.2426
     17 C         139.6817  140.6859  168.9750 C.ar    1  UNL1        0.0949
     18 C         137.9948  142.2531  164.5518 C.3     1  UNL1        0.0499
     19 C         137.3082  141.8582  163.2780 C.3     1  UNL1        0.0774
     20 N         137.9264  140.8267  162.3814 N.3     1  UNL1       -0.2700
     21 C         138.2519  139.4644  162.9184 C.3     1  UNL1        0.0897
     22 C         138.2191  141.1575  160.9480 C.3     1  UNL1        0.0897
@<TRIPOS>BOND
     1    11    10    1
     2    11    12    1
     3    12    13   ar
     4    13    14   ar
     5    14    15   ar
     6    15    16   ar
     7    16    17   ar
     8    11     1    1
     9     1     2   ar
    10     2    18    1
    11    18    19    1
    12    19    20    1
    13    20    21    1
    14    20    22    1
    15     2     3   ar
    16     3     4   ar
    17     4     5   ar
    18     5     6   ar
    19     6     7   ar
    20     7     8   ar
    21     8     9   ar
    22    17    12   ar
    23     9     1   ar
    24     9     4   ar
@<TRIPOS>MOLECULE
*****
 22 24 0 0 0
SMALL
GASTEIGER

@<TRIPOS>ATOM
      1 C         141.6686  142.8747  165.0912 C.ar    1  UNL1       -0.0158
      2 C         142.6683  143.7117  164.3496 C.ar    1  UNL1        0.0050
      3 S         141.9199  144.5745  163.3772 S.2     1  UNL1       -0.0915
      4 C         140.4578  144.2708  163.5179 C.ar    1  UNL1        0.0288
      5 C         139.2477  144.8150  162.8182 C.ar    1  UNL1        0.0065
      6 C         137.8824  144.3087  163.1779 C.ar    1  UNL1        0.0005
      7 C         137.7271  143.2581  164.2372 C.ar    1  UNL1        0.0000
      8 C         138.9371  142.7139  164.9369 C.ar    1  UNL1        0.0002
      9 C         140.3025  143.2202  164.5772 C.ar    1  UNL1        0.0025
     10 C         142.2131  140.4330  165.7925 C.3     1  UNL1        0.0095
     11 C         141.9804  141.8688  166.1593 C.3     1  UNL1        0.0463
     12 C         142.0595  142.2985  167.5942 C.ar    1  UNL1        0.0007
     13 C         140.8176  142.7264  168.3186 C.ar    1  UNL1       -0.0008
     14 C         140.8966  143.1561  169.7535 C.ar    1  UNL1        0.0204
     15 C         142.2176  143.1579  170.4642 C.ar    1  UNL1        0.0989
     16 N         143.4594  142.7301  169.7399 N.ar    1  UNL1       -0.2426
     17 C         143.3804  142.3003  168.3049 C.ar    1  UNL1        0.0949
     18 C         144.1553  143.6898  164.5459 C.3     1  UNL1        0.0499
     19 C         144.9591  142.5215  164.0573 C.3     1  UNL1        0.0774
     20 N         144.6497  141.9021  162.7267 N.3     1  UNL1       -0.2700
     21 C         144.2581  140.4564  162.6452 C.3     1  UNL1        0.0897
     22 C         144.7319  142.7284  161.4775 C.3     1  UNL1        0.0897
@<TRIPOS>BOND
     1    11    10    1
     2    11    12    1
     3    12    13   ar
     4    13    14   ar
     5    14    15   ar
     6    15    16   ar
     7    16    17   ar
     8    11     1    1
     9     1     2   ar
    10     2    18    1
    11    18    19    1
    12    19    20    1
    13    20    21    1
    14    20    22    1
    15     2     3   ar
    16     3     4   ar
    17     4     5   ar
    18     5     6   ar
    19     6     7   ar
    20     7     8   ar
    21     8     9   ar
    22    17    12   ar
    23     9     1   ar
    24     9     4   ar
@<TRIPOS>MOLECULE
*****
 22 24 0 0 0
SMALL
GASTEIGER

@<TRIPOS>ATOM
      1 C         141.5920  141.0763  164.8287 C.ar    1  UNL1       -0.0158
      2 C         140.3213  141.3144  164.0681 C.ar    1  UNL1        0.0050
      3 S         140.3719  142.7033  163.5041 S.2     1  UNL1       -0.0915
      4 C         141.6740  143.3238  163.9161 C.ar    1  UNL1        0.0288
      5 C         142.2704  144.6744  163.6516 C.ar    1  UNL1        0.0065
      6 C         143.6209  145.0195  164.2057 C.ar    1  UNL1        0.0005
      7 C         144.3749  144.0139  165.0243 C.ar    1  UNL1        0.0000
      8 C         143.7786  142.6633  165.2889 C.ar    1  UNL1        0.0002
      9 C         142.4281  142.3182  164.7347 C.ar    1  UNL1        0.0025
     10 C         142.4319  138.6180  164.7870 C.3     1  UNL1        0.0095
     11 C         141.9619  139.8174  165.5556 C.3     1  UNL1        0.0463
     12 C         141.8618  139.7578  167.0510 C.ar    1  UNL1        0.0007
     13 C         140.7070  140.4099  167.7520 C.ar    1  UNL1       -0.0008
     14 C         140.6068  140.3504  169.2475 C.ar    1  UNL1        0.0204
     15 C         141.6614  139.6386  170.0420 C.ar    1  UNL1        0.0989
     16 N         142.8161  138.9866  169.3411 N.ar    1  UNL1       -0.2426
     17 C         142.9163  139.0461  167.8456 C.ar    1  UNL1        0.0949
     18 C         139.1972  140.3353  163.9009 C.3     1  UNL1        0.0499
     19 C         138.2664  140.0596  165.0444 C.3     1  UNL1        0.0774
     20 N         138.2806  138.7187  165.7165 N.3     1  UNL1       -0.2700
     21 C         137.6241  138.5431  167.0538 C.3     1  UNL1        0.0897
     22 C         138.9512  137.5534  165.0514 C.3     1  UNL1        0.0897
@<TRIPOS>BOND
     1    11    10    1
     2    11    12    1
     3    12    13   ar
     4    13    14   ar
     5    14    15   ar
     6    15    16   ar
     7    16    17   ar
     8    11     1    1
     9     1     2   ar
    10     2    18    1
    11    18    19    1
    12    19    20    1
    13    20    21    1
    14    20    22    1
    15     2     3   ar
    16     3     4   ar
    17     4     5   ar
    18     5     6   ar
    19     6     7   ar
    20     7     8   ar
    21     8     9   ar
    22    17    12   ar
    23     9     1   ar
    24     9     4   ar
@<TRIPOS>MOLECULE
*****
 22 24 0 0 0
SMALL
GASTEIGER

@<TRIPOS>ATOM
      1 C         141.0230  141.6506  165.8872 C.ar    1  UNL1       -0.0158
      2 C         141.9648  140.9797  164.9318 C.ar    1  UNL1        0.0050
      3 S         141.8961  141.7102  163.6235 S.2     1  UNL1       -0.0915
      4 C         140.9118  142.8326  163.7703 C.ar    1  UNL1        0.0288
      5 C         140.4372  143.8833  162.8109 C.ar    1  UNL1        0.0065
      6 C         139.4230  144.8972  163.2504 C.ar    1  UNL1        0.0005
      7 C         138.8833  144.8603  164.6495 C.ar    1  UNL1        0.0000
      8 C         139.3579  143.8096  165.6090 C.ar    1  UNL1        0.0002
      9 C         140.3722  142.7957  165.1694 C.ar    1  UNL1        0.0025
     10 C         139.7854  140.1640  167.6217 C.3     1  UNL1        0.0095
     11 C         140.7753  141.2472  167.3106 C.3     1  UNL1        0.0463
     12 C         141.5175  141.9269  168.4228 C.ar    1  UNL1        0.0007
     13 C         142.9574  141.5924  168.6779 C.ar    1  UNL1       -0.0008
     14 C         143.6996  142.2721  169.7901 C.ar    1  UNL1        0.0204
     15 C         143.0020  143.2863  170.6473 C.ar    1  UNL1        0.0989
     16 N         141.5622  143.6208  170.3922 N.ar    1  UNL1       -0.2426
     17 C         140.8200  142.9411  169.2800 C.ar    1  UNL1        0.0949
     18 C         142.8245  139.7877  165.2320 C.3     1  UNL1        0.0499
     19 C         142.3243  138.4067  164.9279 C.3     1  UNL1        0.0774
     20 N         142.0868  137.9910  163.5064 N.3     1  UNL1       -0.2700
     21 C         140.7834  137.3585  163.1177 C.3     1  UNL1        0.0897
     22 C         143.1527  138.2079  162.4735 C.3     1  UNL1        0.0897
@<TRIPOS>BOND
     1    11    10    1
     2    11    12    1
     3    12    13   ar
     4    13    14   ar
     5    14    15   ar
     6    15    16   ar
     7    16    17   ar
     8    11     1    1
     9     1     2   ar
    10     2    18    1
    11    18    19    1
    12    19    20    1
    13    20    21    1
    14    20    22    1
    15     2     3   ar
    16     3     4   ar
    17     4     5   ar
    18     5     6   ar
    19     6     7   ar
    20     7     8   ar
    21     8     9   ar
    22    17    12   ar
    23     9     1   ar
    24     9     4   ar
@<TRIPOS>MOLECULE
*****
 22 24 0 0 0
SMALL
GASTEIGER

@<TRIPOS>ATOM
      1 C         140.3385  140.2555  166.1954 C.ar    1  UNL1       -0.0158
      2 C         141.6475  140.2904  165.4637 C.ar    1  UNL1        0.0050
      3 S         142.7484  140.2701  166.4823 S.2     1  UNL1       -0.0915
      4 C         142.1199  140.2227  167.8434 C.ar    1  UNL1        0.0288
      5 C         142.7113  140.1866  169.2214 C.ar    1  UNL1        0.0065
      6 C         141.8134  140.1414  170.4220 C.ar    1  UNL1        0.0005
      7 C         140.3239  140.1324  170.2447 C.ar    1  UNL1        0.0000
      8 C         139.7324  140.1685  168.8667 C.ar    1  UNL1        0.0002
      9 C         140.6304  140.2137  167.6661 C.ar    1  UNL1        0.0025
     10 C         138.0412  139.1106  165.7926 C.3     1  UNL1        0.0095
     11 C         138.9766  140.2614  165.5667 C.3     1  UNL1        0.0463
     12 C         138.5500  141.4179  164.7121 C.ar    1  UNL1        0.0007
     13 C         138.9196  142.8175  165.1053 C.ar    1  UNL1       -0.0008
     14 C         138.4930  143.9741  164.2507 C.ar    1  UNL1        0.0204
     15 C         137.6968  143.7311  163.0029 C.ar    1  UNL1        0.0989
     16 N         137.3272  142.3315  162.6097 N.ar    1  UNL1       -0.2426
     17 C         137.7538  141.1749  163.4643 C.ar    1  UNL1        0.0949
     18 C         141.8245  140.3373  163.9749 C.3     1  UNL1        0.0499
     19 C         141.9151  139.0624  163.1899 C.3     1  UNL1        0.0774
     20 N         140.8727  137.9981  163.3650 N.3     1  UNL1       -0.2700
     21 C         141.0522  136.9373  164.4103 C.3     1  UNL1        0.0897
     22 C         139.6509  137.9945  162.4949 C.3     1  UNL1        0.0897
@<TRIPOS>BOND
     1    11    10    1
     2    11    12    1
     3    12    13   ar
     4    13    14   ar
     5    14    15   ar
     6    15    16   ar
     7    16    17   ar
     8    11     1    1
     9     1     2   ar
    10     2    18    1
    11    18    19    1
    12    19    20    1
    13    20    21    1
    14    20    22    1
    15     2     3   ar
    16     3     4   ar
    17     4     5   ar
    18     5     6   ar
    19     6     7   ar
    20     7     8   ar
    21     8     9   ar
    22    17    12   ar
    23     9     1   ar
    24     9     4   ar
