@<TRIPOS>MOLECULE
*****
 35 38 0 0 0
SMALL
GASTEIGER

@<TRIPOS>ATOM
      1 C         143.2074  139.2364  157.6430 C.3     1  UNL1        0.1021
      2 C         142.7120  138.4910  156.4393 C.3     1  UNL1        0.0643
      3 C         141.4226  137.7277  156.5081 C.3     1  UNL1        0.1368
      4 C         141.8163  137.4466  155.0882 C.3     1  UNL1        0.0437
      5 C         140.2699  136.8667  156.0837 C.3     1  UNL1        0.0437
      6 O         140.6286  137.7097  157.7805 O.3     1  UNL1       -0.4676
      7 C         141.1240  138.4551  158.9842 C.ar    1  UNL1        0.2219
      8 N         140.3300  138.4372  160.2568 N.ar    1  UNL1       -0.2119
      9 C         140.8254  139.1826  161.4604 C.ar    1  UNL1        0.0851
     10 C         142.1148  139.9460  161.3917 C.ar    1  UNL1        0.0177
     11 C         142.9088  139.9639  160.1192 C.ar    1  UNL1        0.0034
     12 C         142.4134  139.2185  158.9154 C.ar    1  UNL1        0.0488
     13 C         140.0314  139.1647  162.7330 C.ar    1  UNL1        0.0284
     14 C         139.0405  140.2551  163.0141 C.ar    1  UNL1        0.0032
     15 C         138.2465  140.2372  164.2866 C.ar    1  UNL1        0.0115
     16 C         138.4435  139.1288  165.2780 C.ar    1  UNL1        0.0585
     17 CL        137.6495  139.1109  166.5505 Cl      1  UNL1       -0.0822
     18 C         139.4344  138.0385  164.9969 C.ar    1  UNL1        0.0228
     19 C         140.2284  138.0564  163.7244 C.ar    1  UNL1        0.0599
     20 CL        141.2193  136.9660  163.4432 Cl      1  UNL1       -0.0822
     21 C         142.6102  140.6914  162.5954 C.ar    1  UNL1        0.0015
     22 C         142.2006  142.1176  162.8154 C.ar    1  UNL1        0.0009
     23 C         142.6960  142.8630  164.0191 C.ar    1  UNL1        0.0114
     24 C         143.6009  142.1823  165.0028 C.ar    1  UNL1        0.0577
     25 CL        144.0963  142.9277  166.2066 Cl      1  UNL1       -0.0822
     26 C         144.0105  140.7562  164.7828 C.ar    1  UNL1        0.0114
     27 C         143.5151  140.0107  163.5791 C.ar    1  UNL1        0.0009
     28 C         144.5371  141.3460  156.9140 C.2     1  UNL1        0.2495
     29 O         143.2879  141.9290  156.3225 O.2     1  UNL1       -0.2725
     30 N         144.4968  139.9998  157.5742 N.am    1  UNL1       -0.3000
     31 H         145.3166  139.6172  157.9624 H       1  UNL1        0.1498
     32 C         146.7290  141.9516  155.6574 C.3     1  UNL1        0.0417
     33 C         145.8265  142.1093  156.8452 C.3     1  UNL1        0.1866
     34 O         146.2134  143.0304  157.9641 O.3     1  UNL1       -0.3758
     35 H         147.0684  143.4421  157.7629 H       1  UNL1        0.2110
@<TRIPOS>BOND
     1    33    32    1
     2    33    34    1
     3    33    28    1
     4    28    29    2
     5    28    30   am
     6    30     1    1
     7     1     2    1
     8     2     3    1
     9     3     4    1
    10     3     5    1
    11     3     6    1
    12     6     7    1
    13     7     8   ar
    14     8     9   ar
    15     9    13    1
    16    13    14   ar
    17    14    15   ar
    18    15    16   ar
    19    16    17    1
    20    16    18   ar
    21    18    19   ar
    22    19    20    1
    23     9    10   ar
    24    10    21    1
    25    21    22   ar
    26    22    23   ar
    27    23    24   ar
    28    24    25    1
    29    24    26   ar
    30    26    27   ar
    31    10    11   ar
    32    11    12   ar
    33    12     1    1
    34    12     7   ar
    35    19    13   ar
    36    27    21   ar
    37    34    35    1
    38    30    31    1
@<TRIPOS>MOLECULE
*****
 35 38 0 0 0
SMALL
GASTEIGER

@<TRIPOS>ATOM
      1 C         140.3432  141.5052  156.4509 C.3     1  UNL1        0.1021
      2 C         140.3294  142.4358  155.2746 C.3     1  UNL1        0.0643
      3 C         140.0455  143.8949  155.4759 C.3     1  UNL1        0.1368
      4 C         140.2405  143.8701  153.9888 C.3     1  UNL1        0.0437
      5 C         139.8294  145.3453  155.1606 C.3     1  UNL1        0.0437
      6 O         139.7755  144.4234  156.8535 O.3     1  UNL1       -0.4676
      7 C         139.7893  143.4928  158.0298 C.ar    1  UNL1        0.2219
      8 N         139.5193  144.0212  159.4074 N.ar    1  UNL1       -0.2119
      9 C         139.5331  143.0906  160.5837 C.ar    1  UNL1        0.0851
     10 C         139.8170  141.6315  160.3825 C.ar    1  UNL1        0.0177
     11 C         140.0870  141.1030  159.0049 C.ar    1  UNL1        0.0034
     12 C         140.0732  142.0337  157.8285 C.ar    1  UNL1        0.0488
     13 C         139.2631  143.6191  161.9614 C.ar    1  UNL1        0.0284
     14 C         137.8849  143.5216  162.5453 C.ar    1  UNL1        0.0032
     15 C         137.6149  144.0501  163.9229 C.ar    1  UNL1        0.0115
     16 C         138.7232  144.6760  164.7166 C.ar    1  UNL1        0.0585
     17 CL        138.4532  145.2045  166.0943 Cl      1  UNL1       -0.0822
     18 C         140.1014  144.7735  164.1327 C.ar    1  UNL1        0.0228
     19 C         140.3714  144.2450  162.7551 C.ar    1  UNL1        0.0599
     20 CL        141.7497  144.3425  162.1712 Cl      1  UNL1       -0.0822
     21 C         139.8308  140.7009  161.5589 C.ar    1  UNL1        0.0015
     22 C         138.5964  139.9281  161.9183 C.ar    1  UNL1        0.0009
     23 C         138.6102  138.9975  163.0947 C.ar    1  UNL1        0.0114
     24 C         139.8583  138.8398  163.9115 C.ar    1  UNL1        0.0577
     25 CL        139.8721  137.9092  165.0879 Cl      1  UNL1       -0.0822
     26 C         141.0926  139.6126  163.5521 C.ar    1  UNL1        0.0114
     27 C         141.0789  140.5431  162.3758 C.ar    1  UNL1        0.0009
     28 C         139.4934  139.0739  156.1095 C.2     1  UNL1        0.2495
     29 O         138.0759  139.5607  156.1707 O.2     1  UNL1       -0.2725
     30 N         140.6270  140.0461  156.2497 N.am    1  UNL1       -0.3000
     31 H         141.5573  139.7265  156.2095 H       1  UNL1        0.1498
     32 C         141.1459  137.1681  155.4872 C.3     1  UNL1        0.0417
     33 C         139.7772  137.6148  155.9083 C.3     1  UNL1        0.1866
     34 O         138.6924  136.6024  156.1280 O.3     1  UNL1       -0.3758
     35 H         139.0403  135.7134  155.9563 H       1  UNL1        0.2110
@<TRIPOS>BOND
     1    33    32    1
     2    33    34    1
     3    33    28    1
     4    28    29    2
     5    28    30   am
     6    30     1    1
     7     1     2    1
     8     2     3    1
     9     3     4    1
    10     3     5    1
    11     3     6    1
    12     6     7    1
    13     7     8   ar
    14     8     9   ar
    15     9    13    1
    16    13    14   ar
    17    14    15   ar
    18    15    16   ar
    19    16    17    1
    20    16    18   ar
    21    18    19   ar
    22    19    20    1
    23     9    10   ar
    24    10    21    1
    25    21    22   ar
    26    22    23   ar
    27    23    24   ar
    28    24    25    1
    29    24    26   ar
    30    26    27   ar
    31    10    11   ar
    32    11    12   ar
    33    12     1    1
    34    12     7   ar
    35    19    13   ar
    36    27    21   ar
    37    34    35    1
    38    30    31    1
@<TRIPOS>MOLECULE
*****
 35 38 0 0 0
SMALL
GASTEIGER

@<TRIPOS>ATOM
      1 C         138.6186  139.9114  156.8059 C.3     1  UNL1        0.1021
      2 C         138.0125  140.5298  155.5811 C.3     1  UNL1        0.0643
      3 C         137.4130  141.9030  155.6526 C.3     1  UNL1        0.1368
      4 C         137.1687  141.5870  154.2068 C.3     1  UNL1        0.0437
      5 C         136.7286  143.1663  155.2219 C.3     1  UNL1        0.0437
      6 O         137.4195  142.6576  156.9489 O.3     1  UNL1       -0.4676
      7 C         138.0257  142.0392  158.1737 C.ar    1  UNL1        0.2219
      8 N         138.0323  142.7939  159.4700 N.ar    1  UNL1       -0.2119
      9 C         138.6384  142.1755  160.6948 C.ar    1  UNL1        0.0851
     10 C         139.2380  140.8024  160.6233 C.ar    1  UNL1        0.0177
     11 C         139.2314  140.0477  159.3270 C.ar    1  UNL1        0.0034
     12 C         138.6252  140.6661  158.1022 C.ar    1  UNL1        0.0488
     13 C         138.6450  142.9302  161.9912 C.ar    1  UNL1        0.0284
     14 C         137.5773  142.6747  163.0132 C.ar    1  UNL1        0.0032
     15 C         137.5839  143.4294  164.3095 C.ar    1  UNL1        0.0115
     16 C         138.6583  144.4396  164.5837 C.ar    1  UNL1        0.0585
     17 CL        138.6649  145.1943  165.8801 Cl      1  UNL1       -0.0822
     18 C         139.7260  144.6951  163.5617 C.ar    1  UNL1        0.0228
     19 C         139.7194  143.9404  162.2654 C.ar    1  UNL1        0.0599
     20 CL        140.7871  144.1959  161.2433 Cl      1  UNL1       -0.0822
     21 C         139.8441  140.1840  161.8482 C.ar    1  UNL1        0.0015
     22 C         139.0324  139.2515  162.6976 C.ar    1  UNL1        0.0009
     23 C         139.6384  138.6331  163.9224 C.ar    1  UNL1        0.0114
     24 C         141.0563  138.9472  164.2978 C.ar    1  UNL1        0.0577
     25 CL        141.6624  138.3288  165.5227 Cl      1  UNL1       -0.0822
     26 C         141.8681  139.8797  163.4484 C.ar    1  UNL1        0.0114
     27 C         141.2620  140.4981  162.2236 C.ar    1  UNL1        0.0009
     28 C         140.6824  138.3730  156.4540 C.2     1  UNL1        0.2495
     29 O         141.5471  139.5807  156.2450 O.2     1  UNL1       -0.2725
     30 N         139.2182  138.5383  156.7344 N.am    1  UNL1       -0.3000
     31 H         138.6507  137.7456  156.8716 H       1  UNL1        0.1498
     32 C         142.6605  136.7544  156.9206 C.3     1  UNL1        0.0417
     33 C         141.2820  136.9998  156.3825 C.3     1  UNL1        0.1866
     34 O         140.5031  135.8722  155.7729 O.3     1  UNL1       -0.3758
     35 H         141.0315  135.0594  155.8057 H       1  UNL1        0.2110
@<TRIPOS>BOND
     1    33    32    1
     2    33    34    1
     3    33    28    1
     4    28    29    2
     5    28    30   am
     6    30     1    1
     7     1     2    1
     8     2     3    1
     9     3     4    1
    10     3     5    1
    11     3     6    1
    12     6     7    1
    13     7     8   ar
    14     8     9   ar
    15     9    13    1
    16    13    14   ar
    17    14    15   ar
    18    15    16   ar
    19    16    17    1
    20    16    18   ar
    21    18    19   ar
    22    19    20    1
    23     9    10   ar
    24    10    21    1
    25    21    22   ar
    26    22    23   ar
    27    23    24   ar
    28    24    25    1
    29    24    26   ar
    30    26    27   ar
    31    10    11   ar
    32    11    12   ar
    33    12     1    1
    34    12     7   ar
    35    19    13   ar
    36    27    21   ar
    37    34    35    1
    38    30    31    1
@<TRIPOS>MOLECULE
*****
 35 38 0 0 0
SMALL
GASTEIGER

@<TRIPOS>ATOM
      1 C         138.5601  140.8276  164.2105 C.3     1  UNL1        0.1021
      2 C         138.2368  139.9411  165.3765 C.3     1  UNL1        0.0643
      3 C         138.4527  138.4601  165.2751 C.3     1  UNL1        0.1368
      4 C         137.9249  138.5512  166.6762 C.3     1  UNL1        0.0437
      5 C         138.4853  137.0109  165.6605 C.3     1  UNL1        0.0437
      6 O         138.9919  137.8658  164.0079 O.3     1  UNL1       -0.4676
      7 C         139.3151  138.7524  162.8419 C.ar    1  UNL1        0.2219
      8 N         139.8543  138.1580  161.5746 N.ar    1  UNL1       -0.2119
      9 C         140.1776  139.0446  160.4086 C.ar    1  UNL1        0.0851
     10 C         139.9617  140.5255  160.5100 C.ar    1  UNL1        0.0177
     11 C         139.4225  141.1199  161.7772 C.ar    1  UNL1        0.0034
     12 C         139.0992  140.2333  162.9433 C.ar    1  UNL1        0.0488
     13 C         140.7168  138.4502  159.1413 C.ar    1  UNL1        0.0284
     14 C         139.7849  138.1128  158.0154 C.ar    1  UNL1        0.0032
     15 C         140.3241  137.5185  156.7481 C.ar    1  UNL1        0.0115
     16 C         141.7952  137.2616  156.6067 C.ar    1  UNL1        0.0585
     17 CL        142.3343  136.6673  155.3394 Cl      1  UNL1       -0.0822
     18 C         142.7270  137.5991  157.7326 C.ar    1  UNL1        0.0228
     19 C         142.1878  138.1934  158.9999 C.ar    1  UNL1        0.0599
     20 CL        143.1197  138.5308  160.1259 Cl      1  UNL1       -0.0822
     21 C         140.2850  141.4121  159.3439 C.ar    1  UNL1        0.0015
     22 C         141.6844  141.9163  159.1505 C.ar    1  UNL1        0.0009
     23 C         142.0077  142.8028  157.9845 C.ar    1  UNL1        0.0114
     24 C         140.9316  143.1851  157.0120 C.ar    1  UNL1        0.0577
     25 CL        141.2549  144.0717  155.8460 Cl      1  UNL1       -0.0822
     26 C         139.5322  142.6810  157.2055 C.ar    1  UNL1        0.0114
     27 C         139.2088  141.7944  158.3715 C.ar    1  UNL1        0.0009
     28 C         139.4544  143.1974  164.7886 C.2     1  UNL1        0.2495
     29 O         140.7805  142.6054  165.1640 O.2     1  UNL1       -0.2725
     30 N         138.3442  142.3085  164.3118 N.am    1  UNL1       -0.3000
     31 H         137.4738  142.6971  164.0654 H       1  UNL1        0.1498
     32 C         138.3462  145.2347  165.9597 C.3     1  UNL1        0.0417
     33 C         139.2385  144.6784  164.8899 C.3     1  UNL1        0.1866
     34 O         139.9148  145.6029  163.9216 O.3     1  UNL1       -0.3758
     35 H         139.6705  146.5193  164.1250 H       1  UNL1        0.2110
@<TRIPOS>BOND
     1    33    32    1
     2    33    34    1
     3    33    28    1
     4    28    29    2
     5    28    30   am
     6    30     1    1
     7     1     2    1
     8     2     3    1
     9     3     4    1
    10     3     5    1
    11     3     6    1
    12     6     7    1
    13     7     8   ar
    14     8     9   ar
    15     9    13    1
    16    13    14   ar
    17    14    15   ar
    18    15    16   ar
    19    16    17    1
    20    16    18   ar
    21    18    19   ar
    22    19    20    1
    23     9    10   ar
    24    10    21    1
    25    21    22   ar
    26    22    23   ar
    27    23    24   ar
    28    24    25    1
    29    24    26   ar
    30    26    27   ar
    31    10    11   ar
    32    11    12   ar
    33    12     1    1
    34    12     7   ar
    35    19    13   ar
    36    27    21   ar
    37    34    35    1
    38    30    31    1
@<TRIPOS>MOLECULE
*****
 35 38 0 0 0
SMALL
GASTEIGER

@<TRIPOS>ATOM
      1 C         140.8803  138.5191  156.4489 C.3     1  UNL1        0.1021
      2 C         141.6653  137.6948  155.4721 C.3     1  UNL1        0.0643
      3 C         142.8157  136.8593  155.9501 C.3     1  UNL1        0.1368
      4 C         142.8545  136.5420  154.4845 C.3     1  UNL1        0.0437
      5 C         143.9796  135.9135  155.9190 C.3     1  UNL1        0.0437
      6 O         143.1811  136.8481  157.4048 O.3     1  UNL1       -0.4676
      7 C         142.3961  137.6725  158.3816 C.ar    1  UNL1        0.2219
      8 N         142.7615  137.6614  159.8364 N.ar    1  UNL1       -0.2119
      9 C         141.9765  138.4857  160.8132 C.ar    1  UNL1        0.0851
     10 C         140.8260  139.3212  160.3352 C.ar    1  UNL1        0.0177
     11 C         140.4606  139.3324  158.8805 C.ar    1  UNL1        0.0034
     12 C         141.2457  138.5080  157.9036 C.ar    1  UNL1        0.0488
     13 C         142.3419  138.4746  162.2680 C.ar    1  UNL1        0.0284
     14 C         141.5538  137.6392  163.2328 C.ar    1  UNL1        0.0032
     15 C         141.9192  137.6281  164.6876 C.ar    1  UNL1        0.0115
     16 C         143.0726  138.4525  165.1775 C.ar    1  UNL1        0.0585
     17 CL        143.4380  138.4414  166.6323 Cl      1  UNL1       -0.0822
     18 C         143.8607  139.2879  164.2126 C.ar    1  UNL1        0.0228
     19 C         143.4953  139.2990  162.7579 C.ar    1  UNL1        0.0599
     20 CL        144.2833  140.1345  161.7930 Cl      1  UNL1       -0.0822
     21 C         140.0410  140.1456  161.3121 C.ar    1  UNL1        0.0015
     22 C         138.7556  139.6173  161.8766 C.ar    1  UNL1        0.0009
     23 C         137.9706  140.4416  162.8534 C.ar    1  UNL1        0.0114
     24 C         138.4709  141.7942  163.2657 C.ar    1  UNL1        0.0577
     25 CL        137.6859  142.6186  164.2425 Cl      1  UNL1       -0.0822
     26 C         139.7563  142.3226  162.7011 C.ar    1  UNL1        0.0114
     27 C         140.5413  141.4983  161.7243 C.ar    1  UNL1        0.0009
     28 C         138.4568  138.6956  155.5294 C.2     1  UNL1        0.2495
     29 O         138.3341  137.2010  155.5659 O.2     1  UNL1       -0.2725
     30 N         139.7299  139.3546  155.9709 N.am    1  UNL1       -0.3000
     31 H         139.8104  140.3355  155.9469 H       1  UNL1        0.1498
     32 C         137.0367  139.6656  153.5820 C.3     1  UNL1        0.0417
     33 C         137.3064  139.5311  155.0514 C.3     1  UNL1        0.1866
     34 O         136.4256  140.2321  156.0428 O.3     1  UNL1       -0.3758
     35 H         135.7359  140.7246  155.5710 H       1  UNL1        0.2110
@<TRIPOS>BOND
     1    33    32    1
     2    33    34    1
     3    33    28    1
     4    28    29    2
     5    28    30   am
     6    30     1    1
     7     1     2    1
     8     2     3    1
     9     3     4    1
    10     3     5    1
    11     3     6    1
    12     6     7    1
    13     7     8   ar
    14     8     9   ar
    15     9    13    1
    16    13    14   ar
    17    14    15   ar
    18    15    16   ar
    19    16    17    1
    20    16    18   ar
    21    18    19   ar
    22    19    20    1
    23     9    10   ar
    24    10    21    1
    25    21    22   ar
    26    22    23   ar
    27    23    24   ar
    28    24    25    1
    29    24    26   ar
    30    26    27   ar
    31    10    11   ar
    32    11    12   ar
    33    12     1    1
    34    12     7   ar
    35    19    13   ar
    36    27    21   ar
    37    34    35    1
    38    30    31    1
@<TRIPOS>MOLECULE
*****
 35 38 0 0 0
SMALL
GASTEIGER

@<TRIPOS>ATOM
      1 C         143.6190  139.8976  156.1572 C.3     1  UNL1        0.1021
      2 C         144.3580  140.5179  155.0087 C.3     1  UNL1        0.0643
      3 C         145.2557  141.6965  155.2432 C.3     1  UNL1        0.1368
      4 C         145.4297  141.5270  153.7630 C.3     1  UNL1        0.0437
      5 C         146.2138  142.8162  154.9636 C.3     1  UNL1        0.0437
      6 O         145.4144  142.2548  156.6263 O.3     1  UNL1       -0.4676
      7 C         144.6755  141.6346  157.7749 C.ar    1  UNL1        0.2219
      8 N         144.8342  142.1930  159.1580 N.ar    1  UNL1       -0.2119
      9 C         144.0952  141.5727  160.3066 C.ar    1  UNL1        0.0851
     10 C         143.1975  140.3941  160.0720 C.ar    1  UNL1        0.0177
     11 C         143.0388  139.8358  158.6890 C.ar    1  UNL1        0.0034
     12 C         143.7778  140.4560  157.5403 C.ar    1  UNL1        0.0488
     13 C         144.2540  142.1311  161.6898 C.ar    1  UNL1        0.0284
     14 C         145.2441  141.5198  162.6363 C.ar    1  UNL1        0.0032
     15 C         145.4028  142.0782  164.0193 C.ar    1  UNL1        0.0115
     16 C         144.5714  143.2478  164.4559 C.ar    1  UNL1        0.0585
     17 CL        144.7301  143.8062  165.8391 Cl      1  UNL1       -0.0822
     18 C         143.5812  143.8591  163.5095 C.ar    1  UNL1        0.0228
     19 C         143.4225  143.3007  162.1264 C.ar    1  UNL1        0.0599
     20 CL        142.4323  143.9120  161.1798 Cl      1  UNL1       -0.0822
     21 C         142.4586  139.7739  161.2207 C.ar    1  UNL1        0.0015
     22 C         141.1332  140.3312  161.6483 C.ar    1  UNL1        0.0009
     23 C         140.3942  139.7110  162.7969 C.ar    1  UNL1        0.0114
     24 C         140.9806  138.5336  163.5178 C.ar    1  UNL1        0.0577
     25 CL        140.2416  137.9133  164.6665 Cl      1  UNL1       -0.0822
     26 C         142.3059  137.9763  163.0901 C.ar    1  UNL1        0.0114
     27 C         143.0449  138.5965  161.9416 C.ar    1  UNL1        0.0009
     28 C         143.3130  137.3644  155.6684 C.2     1  UNL1        0.2495
     29 O         144.8026  137.1883  155.6486 O.2     1  UNL1       -0.2725
     30 N         142.7213  138.7190  155.9227 N.am    1  UNL1       -0.3000
     31 H         141.7437  138.8346  155.9356 H       1  UNL1        0.1498
     32 C         142.8477  135.0857  154.5102 C.3     1  UNL1        0.0417
     33 C         142.4153  136.1858  155.4338 C.3     1  UNL1        0.1866
     34 O         141.0853  136.1072  156.1229 O.3     1  UNL1       -0.3758
     35 H         140.6348  135.2882  155.8637 H       1  UNL1        0.2110
@<TRIPOS>BOND
     1    33    32    1
     2    33    34    1
     3    33    28    1
     4    28    29    2
     5    28    30   am
     6    30     1    1
     7     1     2    1
     8     2     3    1
     9     3     4    1
    10     3     5    1
    11     3     6    1
    12     6     7    1
    13     7     8   ar
    14     8     9   ar
    15     9    13    1
    16    13    14   ar
    17    14    15   ar
    18    15    16   ar
    19    16    17    1
    20    16    18   ar
    21    18    19   ar
    22    19    20    1
    23     9    10   ar
    24    10    21    1
    25    21    22   ar
    26    22    23   ar
    27    23    24   ar
    28    24    25    1
    29    24    26   ar
    30    26    27   ar
    31    10    11   ar
    32    11    12   ar
    33    12     1    1
    34    12     7   ar
    35    19    13   ar
    36    27    21   ar
    37    34    35    1
    38    30    31    1
@<TRIPOS>MOLECULE
*****
 35 38 0 0 0
SMALL
GASTEIGER

@<TRIPOS>ATOM
      1 C         139.4730  140.0555  156.7772 C.3     1  UNL1        0.1021
      2 C         138.5597  140.3672  155.6288 C.3     1  UNL1        0.0643
      3 C         137.4968  141.4149  155.7789 C.3     1  UNL1        0.1368
      4 C         137.2472  140.9917  154.3616 C.3     1  UNL1        0.0437
      5 C         136.3471  142.3155  155.4367 C.3     1  UNL1        0.0437
      6 O         137.3471  142.1508  157.0773 O.3     1  UNL1       -0.4676
      7 C         138.2604  141.8391  158.2256 C.ar    1  UNL1        0.2219
      8 N         138.1107  142.5751  159.5241 N.ar    1  UNL1       -0.2119
      9 C         139.0240  142.2634  160.6725 C.ar    1  UNL1        0.0851
     10 C         140.0869  141.2158  160.5224 C.ar    1  UNL1        0.0177
     11 C         140.2366  140.4798  159.2240 C.ar    1  UNL1        0.0034
     12 C         139.3233  140.7915  158.0756 C.ar    1  UNL1        0.0488
     13 C         138.8743  142.9994  161.9710 C.ar    1  UNL1        0.0284
     14 C         139.6111  144.2870  162.1925 C.ar    1  UNL1        0.0032
     15 C         139.4614  145.0229  163.4909 C.ar    1  UNL1        0.0115
     16 C         138.5749  144.4712  164.5679 C.ar    1  UNL1        0.0585
     17 CL        138.4252  145.2072  165.8664 Cl      1  UNL1       -0.0822
     18 C         137.8381  143.1836  164.3463 C.ar    1  UNL1        0.0228
     19 C         137.9878  142.4477  163.0479 C.ar    1  UNL1        0.0599
     20 CL        137.2510  141.1600  162.8263 Cl      1  UNL1       -0.0822
     21 C         141.0002  140.9041  161.6708 C.ar    1  UNL1        0.0015
     22 C         142.2581  141.6978  161.8655 C.ar    1  UNL1        0.0009
     23 C         143.1714  141.3862  163.0138 C.ar    1  UNL1        0.0114
     24 C         142.8268  140.2809  163.9675 C.ar    1  UNL1        0.0577
     25 CL        143.7401  139.9692  165.1160 Cl      1  UNL1       -0.0822
     26 C         141.5690  139.4872  163.7729 C.ar    1  UNL1        0.0114
     27 C         140.6557  139.7988  162.6245 C.ar    1  UNL1        0.0009
     28 C         140.1534  137.5887  156.3283 C.2     1  UNL1        0.2495
     29 O         138.7078  137.2170  156.1795 O.2     1  UNL1       -0.2725
     30 N         140.5360  139.0079  156.6271 N.am    1  UNL1       -0.3000
     31 H         141.4848  139.2518  156.7247 H       1  UNL1        0.1498
     32 C         142.6276  136.8402  156.5894 C.3     1  UNL1        0.0417
     33 C         141.2164  136.5410  156.1782 C.3     1  UNL1        0.1866
     34 O         140.8682  135.1943  155.6170 O.3     1  UNL1       -0.3758
     35 H         141.6640  134.6405  155.5880 H       1  UNL1        0.2110
@<TRIPOS>BOND
     1    33    32    1
     2    33    34    1
     3    33    28    1
     4    28    29    2
     5    28    30   am
     6    30     1    1
     7     1     2    1
     8     2     3    1
     9     3     4    1
    10     3     5    1
    11     3     6    1
    12     6     7    1
    13     7     8   ar
    14     8     9   ar
    15     9    13    1
    16    13    14   ar
    17    14    15   ar
    18    15    16   ar
    19    16    17    1
    20    16    18   ar
    21    18    19   ar
    22    19    20    1
    23     9    10   ar
    24    10    21    1
    25    21    22   ar
    26    22    23   ar
    27    23    24   ar
    28    24    25    1
    29    24    26   ar
    30    26    27   ar
    31    10    11   ar
    32    11    12   ar
    33    12     1    1
    34    12     7   ar
    35    19    13   ar
    36    27    21   ar
    37    34    35    1
    38    30    31    1
@<TRIPOS>MOLECULE
*****
 35 38 0 0 0
SMALL
GASTEIGER

@<TRIPOS>ATOM
      1 C         139.9874  137.6705  156.3339 C.3     1  UNL1        0.1021
      2 C         139.2461  137.8571  155.0433 C.3     1  UNL1        0.0643
      3 C         138.1802  138.9070  154.9358 C.3     1  UNL1        0.1368
      4 C         138.1283  138.3399  153.5480 C.3     1  UNL1        0.0437
      5 C         137.0963  139.7599  154.3462 C.3     1  UNL1        0.0437
      6 O         137.8556  139.7702  156.1187 O.3     1  UNL1       -0.4676
      7 C         138.5970  139.5836  157.4092 C.ar    1  UNL1        0.2219
      8 N         138.2724  140.4468  158.5923 N.ar    1  UNL1       -0.2119
      9 C         139.0137  140.2602  159.8828 C.ar    1  UNL1        0.0851
     10 C         140.0797  139.2103  159.9904 C.ar    1  UNL1        0.0177
     11 C         140.4042  138.3471  158.8074 C.ar    1  UNL1        0.0034
     12 C         139.6629  138.5337  157.5168 C.ar    1  UNL1        0.0488
     13 C         138.6892  141.1235  161.0659 C.ar    1  UNL1        0.0284
     14 C         137.7010  140.6509  162.0906 C.ar    1  UNL1        0.0032
     15 C         137.3765  141.5141  163.2735 C.ar    1  UNL1        0.0115
     16 C         138.0402  142.8499  163.4318 C.ar    1  UNL1        0.0585
     17 CL        137.7156  143.7132  164.6148 Cl      1  UNL1       -0.0822
     18 C         139.0284  143.3225  162.4071 C.ar    1  UNL1        0.0228
     19 C         139.3529  142.4593  161.2241 C.ar    1  UNL1        0.0599
     20 CL        140.3411  142.9319  160.1993 Cl      1  UNL1       -0.0822
     21 C         140.8210  139.0237  161.2810 C.ar    1  UNL1        0.0015
     22 C         140.3779  137.9727  162.2553 C.ar    1  UNL1        0.0009
     23 C         141.1192  137.7861  163.5458 C.ar    1  UNL1        0.0114
     24 C         142.3036  138.6504  163.8622 C.ar    1  UNL1        0.0577
     25 CL        143.0450  138.4638  165.1528 Cl      1  UNL1       -0.0822
     26 C         142.7467  139.7014  162.8879 C.ar    1  UNL1        0.0114
     27 C         142.0054  139.8880  161.5974 C.ar    1  UNL1        0.0009
     28 C         142.4467  136.9154  155.9707 C.2     1  UNL1        0.2495
     29 O         142.7742  138.2602  155.3923 O.2     1  UNL1       -0.2725
     30 N         141.0534  136.6206  156.4415 N.am    1  UNL1       -0.3000
     31 H         140.8384  135.7380  156.8210 H       1  UNL1        0.1498
     32 C         143.2791  134.6426  156.9150 C.3     1  UNL1        0.0417
     33 C         143.5126  135.8655  156.0783 C.3     1  UNL1        0.1866
     34 O         144.8120  136.0385  155.3492 O.3     1  UNL1       -0.3758
     35 H         145.3851  135.2758  155.5244 H       1  UNL1        0.2110
@<TRIPOS>BOND
     1    33    32    1
     2    33    34    1
     3    33    28    1
     4    28    29    2
     5    28    30   am
     6    30     1    1
     7     1     2    1
     8     2     3    1
     9     3     4    1
    10     3     5    1
    11     3     6    1
    12     6     7    1
    13     7     8   ar
    14     8     9   ar
    15     9    13    1
    16    13    14   ar
    17    14    15   ar
    18    15    16   ar
    19    16    17    1
    20    16    18   ar
    21    18    19   ar
    22    19    20    1
    23     9    10   ar
    24    10    21    1
    25    21    22   ar
    26    22    23   ar
    27    23    24   ar
    28    24    25    1
    29    24    26   ar
    30    26    27   ar
    31    10    11   ar
    32    11    12   ar
    33    12     1    1
    34    12     7   ar
    35    19    13   ar
    36    27    21   ar
    37    34    35    1
    38    30    31    1
@<TRIPOS>MOLECULE
*****
 35 38 0 0 0
SMALL
GASTEIGER

@<TRIPOS>ATOM
      1 C         140.4395  137.2601  156.3928 C.3     1  UNL1        0.1021
      2 C         141.1314  136.2177  155.5653 C.3     1  UNL1        0.0643
      3 C         142.5631  135.8677  155.8437 C.3     1  UNL1        0.1368
      4 C         142.2872  134.9422  154.6960 C.3     1  UNL1        0.0437
      5 C         143.8990  135.1962  155.7235 C.3     1  UNL1        0.0437
      6 O         143.3030  136.5600  156.9497 O.3     1  UNL1       -0.4676
      7 C         142.6112  137.6023  157.7773 C.ar    1  UNL1        0.2219
      8 N         143.3511  138.2946  158.8833 N.ar    1  UNL1       -0.2119
      9 C         142.6592  139.3370  159.7108 C.ar    1  UNL1        0.0851
     10 C         141.2274  139.6870  159.4324 C.ar    1  UNL1        0.0177
     11 C         140.4875  138.9947  158.3264 C.ar    1  UNL1        0.0034
     12 C         141.1794  137.9523  157.4988 C.ar    1  UNL1        0.0488
     13 C         143.3991  140.0293  160.8169 C.ar    1  UNL1        0.0284
     14 C         144.0244  141.3712  160.5758 C.ar    1  UNL1        0.0032
     15 C         144.7642  142.0635  161.6818 C.ar    1  UNL1        0.0115
     16 C         144.8788  141.4138  163.0290 C.ar    1  UNL1        0.0585
     17 CL        145.6187  142.1062  164.1350 Cl      1  UNL1       -0.0822
     18 C         144.2535  140.0719  163.2701 C.ar    1  UNL1        0.0228
     19 C         143.5137  139.3796  162.1641 C.ar    1  UNL1        0.0599
     20 CL        142.8883  138.0376  162.4052 Cl      1  UNL1       -0.0822
     21 C         140.5356  140.7294  160.2600 C.ar    1  UNL1        0.0015
     22 C         140.4640  142.1468  159.7743 C.ar    1  UNL1        0.0009
     23 C         139.7722  143.1891  160.6018 C.ar    1  UNL1        0.0114
     24 C         139.1520  142.8141  161.9150 C.ar    1  UNL1        0.0577
     25 CL        138.4601  143.8565  162.7426 Cl      1  UNL1       -0.0822
     26 C         139.2236  141.3967  162.4008 C.ar    1  UNL1        0.0114
     27 C         139.9154  140.3544  161.5732 C.ar    1  UNL1        0.0009
     28 C         138.6729  138.5947  155.0334 C.2     1  UNL1        0.2495
     29 O         139.7699  139.2293  154.2309 O.2     1  UNL1       -0.2725
     30 N         139.0078  137.6101  156.1144 N.am    1  UNL1       -0.3000
     31 H         138.2878  137.1936  156.6411 H       1  UNL1        0.1498
     32 C         136.5627  138.4085  153.5293 C.3     1  UNL1        0.0417
     33 C         137.2412  138.9447  154.7550 C.3     1  UNL1        0.1866
     34 O         136.4879  139.8309  155.7021 O.3     1  UNL1       -0.3758
     35 H         135.5827  139.9564  155.3769 H       1  UNL1        0.2110
@<TRIPOS>BOND
     1    33    32    1
     2    33    34    1
     3    33    28    1
     4    28    29    2
     5    28    30   am
     6    30     1    1
     7     1     2    1
     8     2     3    1
     9     3     4    1
    10     3     5    1
    11     3     6    1
    12     6     7    1
    13     7     8   ar
    14     8     9   ar
    15     9    13    1
    16    13    14   ar
    17    14    15   ar
    18    15    16   ar
    19    16    17    1
    20    16    18   ar
    21    18    19   ar
    22    19    20    1
    23     9    10   ar
    24    10    21    1
    25    21    22   ar
    26    22    23   ar
    27    23    24   ar
    28    24    25    1
    29    24    26   ar
    30    26    27   ar
    31    10    11   ar
    32    11    12   ar
    33    12     1    1
    34    12     7   ar
    35    19    13   ar
    36    27    21   ar
    37    34    35    1
    38    30    31    1
