@<TRIPOS>MOLECULE
*****
 27 30 0 0 0
SMALL
GASTEIGER

@<TRIPOS>ATOM
      1 C         138.0507  139.1687  167.0009 C.3     1  UNL1        0.1063
      2 C         139.3160  139.9570  167.1669 C.3     1  UNL1        0.3270
      3 N         139.0765  139.5461  168.5895 N.2     1  UNL1       -0.0292
      4 C         140.0329  139.9710  169.6641 C.2     1  UNL1        0.3221
      5 N         139.7934  139.5601  171.0867 N.pl3   1  UNL1       -0.2462
      6 C         141.2288  140.8070  169.3161 C.ar    1  UNL1        0.1429
      7 C         142.1852  141.2319  170.3907 C.ar    1  UNL1        0.1502
      8 F         141.9457  140.8210  171.8133 F       1  UNL1       -0.2038
      9 C         143.3810  142.0678  170.0426 C.ar    1  UNL1        0.0301
     10 C         143.6205  142.4787  168.6200 C.ar    1  UNL1        0.0054
     11 C         142.6642  142.0538  167.5455 C.ar    1  UNL1        0.0375
     12 C         141.4683  141.2179  167.8935 C.ar    1  UNL1        0.1523
     13 O         140.5119  140.7929  166.8189 O.3     1  UNL1       -0.4393
     14 H         139.0084  139.0115  171.3151 H       1  UNL1        0.2884
     15 H         140.4211  139.8390  171.7920 H       1  UNL1        0.2884
     16 C         139.1161  140.0942  165.6867 C.ar    1  UNL1        0.0612
     17 C         138.6788  138.9103  164.8760 C.ar    1  UNL1        0.0034
     18 C         138.4789  139.0475  163.3958 C.ar    1  UNL1       -0.0001
     19 C         138.7163  140.3686  162.7261 C.ar    1  UNL1        0.0001
     20 C         139.1535  141.5525  163.5367 C.ar    1  UNL1        0.0029
     21 C         139.3535  141.4153  165.0170 C.ar    1  UNL1        0.0035
     22 C         139.3909  142.8736  162.8672 C.ar    1  UNL1        0.0384
     23 C         140.7231  143.1703  162.2448 C.ar    1  UNL1        0.1022
     24 N         140.9604  144.4914  161.5753 N.ar    1  UNL1       -0.2224
     25 C         139.8658  145.5157  161.5280 C.ar    1  UNL1        0.1989
     26 N         138.5336  145.2190  162.1504 N.ar    1  UNL1       -0.2224
     27 C         138.2962  143.8980  162.8199 C.ar    1  UNL1        0.1022
@<TRIPOS>BOND
     1     1     2    1
     2     2    16    1
     3    16    17   ar
     4    17    18   ar
     5    18    19   ar
     6    19    20   ar
     7    20    22    1
     8    22    23   ar
     9    23    24   ar
    10    24    25   ar
    11    25    26   ar
    12    26    27   ar
    13    20    21   ar
    14     2     3    1
    15     3     4    2
    16     4     5    1
    17     4     6    1
    18     6     7   ar
    19     7     8    1
    20     7     9   ar
    21     9    10   ar
    22    10    11   ar
    23    11    12   ar
    24    12    13    1
    25    13     2    1
    26    21    16   ar
    27    12     6   ar
    28    27    22   ar
    29     5    14    1
    30     5    15    1
@<TRIPOS>MOLECULE
*****
 27 30 0 0 0
SMALL
GASTEIGER

@<TRIPOS>ATOM
      1 C         142.3325  138.2685  165.2818 C.3     1  UNL1        0.1063
      2 C         141.5075  138.4160  164.0377 C.3     1  UNL1        0.3270
      3 N         142.8571  138.1760  163.4284 N.2     1  UNL1       -0.0292
      4 C         143.0125  138.1490  161.9368 C.2     1  UNL1        0.3221
      5 N         144.3620  137.9090  161.3276 N.pl3   1  UNL1       -0.2462
      6 C         141.8184  138.3621  161.0543 C.ar    1  UNL1        0.1429
      7 C         141.9738  138.3352  159.5627 C.ar    1  UNL1        0.1502
      8 F         143.3233  138.0952  158.9534 F       1  UNL1       -0.2038
      9 C         140.7797  138.5482  158.6803 C.ar    1  UNL1        0.0301
     10 C         139.4302  138.7882  159.2895 C.ar    1  UNL1        0.0054
     11 C         139.2747  138.8152  160.7812 C.ar    1  UNL1        0.0375
     12 C         140.4688  138.6021  161.6636 C.ar    1  UNL1        0.1523
     13 O         140.3134  138.6290  163.1553 O.3     1  UNL1       -0.4393
     14 H         145.1458  137.7692  161.9067 H       1  UNL1        0.2884
     15 H         144.4640  137.8914  160.3485 H       1  UNL1        0.2884
     16 C         140.4445  138.6047  165.0790 C.ar    1  UNL1        0.0612
     17 C         139.1999  137.7685  165.0404 C.ar    1  UNL1        0.0034
     18 C         138.1369  137.9573  166.0817 C.ar    1  UNL1       -0.0001
     19 C         138.3185  138.9823  167.1616 C.ar    1  UNL1        0.0001
     20 C         139.5631  139.8186  167.2003 C.ar    1  UNL1        0.0029
     21 C         140.6262  139.6298  166.1590 C.ar    1  UNL1        0.0035
     22 C         139.7447  140.8436  168.2802 C.ar    1  UNL1        0.0384
     23 C         140.4217  142.1462  167.9716 C.ar    1  UNL1        0.1022
     24 N         140.6033  143.1712  169.0515 N.ar    1  UNL1       -0.2224
     25 C         140.1082  142.8938  170.4399 C.ar    1  UNL1        0.1989
     26 N         139.4313  141.5913  170.7486 N.ar    1  UNL1       -0.2224
     27 C         139.2496  140.5662  169.6687 C.ar    1  UNL1        0.1022
@<TRIPOS>BOND
     1     1     2    1
     2     2    16    1
     3    16    17   ar
     4    17    18   ar
     5    18    19   ar
     6    19    20   ar
     7    20    22    1
     8    22    23   ar
     9    23    24   ar
    10    24    25   ar
    11    25    26   ar
    12    26    27   ar
    13    20    21   ar
    14     2     3    1
    15     3     4    2
    16     4     5    1
    17     4     6    1
    18     6     7   ar
    19     7     8    1
    20     7     9   ar
    21     9    10   ar
    22    10    11   ar
    23    11    12   ar
    24    12    13    1
    25    13     2    1
    26    21    16   ar
    27    12     6   ar
    28    27    22   ar
    29     5    14    1
    30     5    15    1
@<TRIPOS>MOLECULE
*****
 27 30 0 0 0
SMALL
GASTEIGER

@<TRIPOS>ATOM
      1 C         143.6874  138.0101  166.5375 C.3     1  UNL1        0.1063
      2 C         142.8872  139.2476  166.8171 C.3     1  UNL1        0.3270
      3 N         143.2122  138.8253  168.2192 N.2     1  UNL1       -0.0292
      4 C         142.7206  139.6379  169.3803 C.2     1  UNL1        0.3221
      5 N         143.0456  139.2155  170.7824 N.pl3   1  UNL1       -0.2462
      6 C         141.9040  140.8729  169.1392 C.ar    1  UNL1        0.1429
      7 C         141.4125  141.6855  170.3002 C.ar    1  UNL1        0.1502
      8 F         141.7375  141.2631  171.7023 F       1  UNL1       -0.2038
      9 C         140.5959  142.9204  170.0591 C.ar    1  UNL1        0.0301
     10 C         140.2710  143.3427  168.6569 C.ar    1  UNL1        0.0054
     11 C         140.7625  142.5301  167.4959 C.ar    1  UNL1        0.0375
     12 C         141.5790  141.2952  167.7370 C.ar    1  UNL1        0.1523
     13 O         142.0706  140.4825  166.5760 O.3     1  UNL1       -0.4393
     14 H         143.5815  138.4050  170.9406 H       1  UNL1        0.2884
     15 H         142.7230  139.7489  171.5444 H       1  UNL1        0.2884
     16 C         142.8401  139.2402  165.3179 C.ar    1  UNL1        0.0612
     17 C         144.1142  139.1953  164.5276 C.ar    1  UNL1        0.0034
     18 C         144.0671  139.1879  163.0284 C.ar    1  UNL1       -0.0001
     19 C         142.7458  139.2253  162.3194 C.ar    1  UNL1        0.0001
     20 C         141.4716  139.2701  163.1095 C.ar    1  UNL1        0.0029
     21 C         141.5187  139.2776  164.6088 C.ar    1  UNL1        0.0035
     22 C         140.1503  139.3076  162.4005 C.ar    1  UNL1        0.0384
     23 C         139.2301  138.1248  162.4665 C.ar    1  UNL1        0.1022
     24 N         137.9087  138.1622  161.7576 N.ar    1  UNL1       -0.2224
     25 C         137.5076  139.3822  160.9826 C.ar    1  UNL1        0.1989
     26 N         138.4278  140.5650  160.9166 N.ar    1  UNL1       -0.2224
     27 C         139.7491  140.5276  161.6256 C.ar    1  UNL1        0.1022
@<TRIPOS>BOND
     1     1     2    1
     2     2    16    1
     3    16    17   ar
     4    17    18   ar
     5    18    19   ar
     6    19    20   ar
     7    20    22    1
     8    22    23   ar
     9    23    24   ar
    10    24    25   ar
    11    25    26   ar
    12    26    27   ar
    13    20    21   ar
    14     2     3    1
    15     3     4    2
    16     4     5    1
    17     4     6    1
    18     6     7   ar
    19     7     8    1
    20     7     9   ar
    21     9    10   ar
    22    10    11   ar
    23    11    12   ar
    24    12    13    1
    25    13     2    1
    26    21    16   ar
    27    12     6   ar
    28    27    22   ar
    29     5    14    1
    30     5    15    1
@<TRIPOS>MOLECULE
*****
 27 30 0 0 0
SMALL
GASTEIGER

@<TRIPOS>ATOM
      1 C         140.0357  144.8172  164.8404 C.3     1  UNL1        0.1063
      2 C         140.8185  144.3747  163.6398 C.3     1  UNL1        0.3270
      3 N         139.9195  145.3931  163.0037 N.2     1  UNL1       -0.0292
      4 C         140.0210  145.6687  161.5328 C.2     1  UNL1        0.3221
      5 N         139.1220  146.6871  160.8967 N.pl3   1  UNL1       -0.2462
      6 C         141.0216  144.9258  160.6978 C.ar    1  UNL1        0.1429
      7 C         141.1232  145.2014  159.2269 C.ar    1  UNL1        0.1502
      8 F         140.2242  146.2198  158.5908 F       1  UNL1       -0.2038
      9 C         142.1237  144.4586  158.3921 C.ar    1  UNL1        0.0301
     10 C         143.0228  143.4402  159.0281 C.ar    1  UNL1        0.0054
     11 C         142.9212  143.1646  160.4991 C.ar    1  UNL1        0.0375
     12 C         141.9206  143.9074  161.3339 C.ar    1  UNL1        0.1523
     13 O         141.8191  143.6319  162.8050 O.3     1  UNL1       -0.4393
     14 H         138.4653  147.1747  161.4447 H       1  UNL1        0.2884
     15 H         139.1887  146.8680  159.9313 H       1  UNL1        0.2884
     16 C         141.4456  143.5100  164.6928 C.ar    1  UNL1        0.0612
     17 C         142.9191  143.2318  164.6552 C.ar    1  UNL1        0.0034
     18 C         143.5463  142.3671  165.7082 C.ar    1  UNL1       -0.0001
     19 C         142.6999  141.7805  166.7989 C.ar    1  UNL1        0.0001
     20 C         141.2265  142.0586  166.8366 C.ar    1  UNL1        0.0029
     21 C         140.5993  142.9234  165.7836 C.ar    1  UNL1        0.0035
     22 C         140.3801  141.4721  167.9273 C.ar    1  UNL1        0.0384
     23 C         139.6345  140.1919  167.6916 C.ar    1  UNL1        0.1022
     24 N         138.7881  139.6054  168.7823 N.ar    1  UNL1       -0.2224
     25 C         138.6872  140.2988  170.1085 C.ar    1  UNL1        0.1989
     26 N         139.4328  141.5789  170.3442 N.ar    1  UNL1       -0.2224
     27 C         140.2792  142.1655  169.2535 C.ar    1  UNL1        0.1022
@<TRIPOS>BOND
     1     1     2    1
     2     2    16    1
     3    16    17   ar
     4    17    18   ar
     5    18    19   ar
     6    19    20   ar
     7    20    22    1
     8    22    23   ar
     9    23    24   ar
    10    24    25   ar
    11    25    26   ar
    12    26    27   ar
    13    20    21   ar
    14     2     3    1
    15     3     4    2
    16     4     5    1
    17     4     6    1
    18     6     7   ar
    19     7     8    1
    20     7     9   ar
    21     9    10   ar
    22    10    11   ar
    23    11    12   ar
    24    12    13    1
    25    13     2    1
    26    21    16   ar
    27    12     6   ar
    28    27    22   ar
    29     5    14    1
    30     5    15    1
@<TRIPOS>MOLECULE
*****
 27 30 0 0 0
SMALL
GASTEIGER

@<TRIPOS>ATOM
      1 C         137.7565  141.2382  163.8483 C.3     1  UNL1        0.1063
      2 C         139.1426  141.7719  164.0576 C.3     1  UNL1        0.3270
      3 N         138.8081  142.4221  162.7479 N.2     1  UNL1       -0.0292
      4 C         139.8087  143.3159  162.0771 C.2     1  UNL1        0.3221
      5 N         139.4742  143.9661  160.7674 N.pl3   1  UNL1       -0.2462
      6 C         141.1439  143.5594  162.7160 C.ar    1  UNL1        0.1429
      7 C         142.1444  144.4532  162.0452 C.ar    1  UNL1        0.1502
      8 F         141.8099  145.1034  160.7355 F       1  UNL1       -0.2038
      9 C         143.4795  144.6966  162.6841 C.ar    1  UNL1        0.0301
     10 C         143.8140  144.0464  163.9938 C.ar    1  UNL1        0.0054
     11 C         142.8135  143.1526  164.6646 C.ar    1  UNL1        0.0375
     12 C         141.4784  142.9091  164.0257 C.ar    1  UNL1        0.1523
     13 O         140.4777  142.0153  164.6965 O.3     1  UNL1       -0.4393
     14 H         138.5979  143.8063  160.3481 H       1  UNL1        0.2884
     15 H         140.1309  144.5527  160.3272 H       1  UNL1        0.2884
     16 C         138.9958  140.9363  165.2945 C.ar    1  UNL1        0.0612
     17 C         138.1181  139.7200  165.2783 C.ar    1  UNL1        0.0034
     18 C         137.9712  138.8844  166.5152 C.ar    1  UNL1       -0.0001
     19 C         138.7021  139.2651  167.7686 C.ar    1  UNL1        0.0001
     20 C         139.5798  140.4813  167.7850 C.ar    1  UNL1        0.0029
     21 C         139.7267  141.3169  166.5480 C.ar    1  UNL1        0.0035
     22 C         140.3107  140.8620  169.0383 C.ar    1  UNL1        0.0384
     23 C         141.6700  140.2917  169.3164 C.ar    1  UNL1        0.1022
     24 N         142.4009  140.6724  170.5697 N.ar    1  UNL1       -0.2224
     25 C         141.7727  141.6233  171.5449 C.ar    1  UNL1        0.1989
     26 N         140.4134  142.1935  171.2669 N.ar    1  UNL1       -0.2224
     27 C         139.6825  141.8128  170.0136 C.ar    1  UNL1        0.1022
@<TRIPOS>BOND
     1     1     2    1
     2     2    16    1
     3    16    17   ar
     4    17    18   ar
     5    18    19   ar
     6    19    20   ar
     7    20    22    1
     8    22    23   ar
     9    23    24   ar
    10    24    25   ar
    11    25    26   ar
    12    26    27   ar
    13    20    21   ar
    14     2     3    1
    15     3     4    2
    16     4     5    1
    17     4     6    1
    18     6     7   ar
    19     7     8    1
    20     7     9   ar
    21     9    10   ar
    22    10    11   ar
    23    11    12   ar
    24    12    13    1
    25    13     2    1
    26    21    16   ar
    27    12     6   ar
    28    27    22   ar
    29     5    14    1
    30     5    15    1
@<TRIPOS>MOLECULE
*****
 27 30 0 0 0
SMALL
GASTEIGER

@<TRIPOS>ATOM
      1 C         138.0692  138.6316  166.3939 C.3     1  UNL1        0.1063
      2 C         139.3009  139.4399  166.6758 C.3     1  UNL1        0.3270
      3 N         138.6740  139.4364  168.0386 N.2     1  UNL1       -0.0292
      4 C         139.3480  140.1448  169.1760 C.2     1  UNL1        0.3221
      5 N         138.7212  140.1412  170.5388 N.pl3   1  UNL1       -0.2462
      6 C         140.6489  140.8569  168.9507 C.ar    1  UNL1        0.1429
      7 C         141.3229  141.5653  170.0882 C.ar    1  UNL1        0.1502
      8 F         140.6961  141.5618  171.4509 F       1  UNL1       -0.2038
      9 C         142.6237  142.2774  169.8629 C.ar    1  UNL1        0.0301
     10 C         143.2506  142.2809  168.5001 C.ar    1  UNL1        0.0054
     11 C         142.5766  141.5725  167.3627 C.ar    1  UNL1        0.0375
     12 C         141.2758  140.8605  167.5880 C.ar    1  UNL1        0.1523
     13 O         140.6017  140.1520  166.4505 O.3     1  UNL1       -0.4393
     14 H         137.8674  139.6739  170.6866 H       1  UNL1        0.2884
     15 H         139.1636  140.6062  171.2853 H       1  UNL1        0.2884
     16 C         139.5000  139.1628  165.2152 C.ar    1  UNL1        0.0612
     17 C         139.2015  137.8006  164.6627 C.ar    1  UNL1        0.0034
     18 C         139.4006  137.5235  163.2021 C.ar    1  UNL1       -0.0001
     19 C         139.8982  138.6086  162.2938 C.ar    1  UNL1        0.0001
     20 C         140.1967  139.9708  162.8462 C.ar    1  UNL1        0.0029
     21 C         139.9976  140.2480  164.3069 C.ar    1  UNL1        0.0035
     22 C         140.6943  141.0560  161.9380 C.ar    1  UNL1        0.0384
     23 C         141.2365  140.7098  160.5829 C.ar    1  UNL1        0.1022
     24 N         141.7341  141.7950  159.6748 N.ar    1  UNL1       -0.2224
     25 C         141.6895  143.2262  160.1215 C.ar    1  UNL1        0.1989
     26 N         141.1473  143.5723  161.4766 N.ar    1  UNL1       -0.2224
     27 C         140.6497  142.4872  162.3848 C.ar    1  UNL1        0.1022
@<TRIPOS>BOND
     1     1     2    1
     2     2    16    1
     3    16    17   ar
     4    17    18   ar
     5    18    19   ar
     6    19    20   ar
     7    20    22    1
     8    22    23   ar
     9    23    24   ar
    10    24    25   ar
    11    25    26   ar
    12    26    27   ar
    13    20    21   ar
    14     2     3    1
    15     3     4    2
    16     4     5    1
    17     4     6    1
    18     6     7   ar
    19     7     8    1
    20     7     9   ar
    21     9    10   ar
    22    10    11   ar
    23    11    12   ar
    24    12    13    1
    25    13     2    1
    26    21    16   ar
    27    12     6   ar
    28    27    22   ar
    29     5    14    1
    30     5    15    1
@<TRIPOS>MOLECULE
*****
 27 30 0 0 0
SMALL
GASTEIGER

@<TRIPOS>ATOM
      1 C         143.5119  137.9088  166.7645 C.3     1  UNL1        0.1063
      2 C         142.7090  139.1594  166.9673 C.3     1  UNL1        0.3270
      3 N         143.2020  138.9367  168.3663 N.2     1  UNL1       -0.0292
      4 C         142.8178  139.8911  169.4579 C.2     1  UNL1        0.3221
      5 N         143.3109  139.6684  170.8569 N.pl3   1  UNL1       -0.2462
      6 C         141.9405  141.0684  169.1504 C.ar    1  UNL1        0.1429
      7 C         141.5563  142.0228  170.2419 C.ar    1  UNL1        0.1502
      8 F         142.0493  141.8000  171.6409 F       1  UNL1       -0.2038
      9 C         140.6790  143.1999  169.9344 C.ar    1  UNL1        0.0301
     10 C         140.1859  143.4227  168.5353 C.ar    1  UNL1        0.0054
     11 C         140.5701  142.4683  167.4438 C.ar    1  UNL1        0.0375
     12 C         141.4474  141.2911  167.7513 C.ar    1  UNL1        0.1523
     13 O         141.8317  140.3366  166.6598 O.3     1  UNL1       -0.4393
     14 H         143.8867  138.8957  171.0587 H       1  UNL1        0.2884
     15 H         143.0587  140.2948  171.5733 H       1  UNL1        0.2884
     16 C         142.4947  138.9479  165.4979 C.ar    1  UNL1        0.0612
     17 C         141.7020  137.7685  165.0176 C.ar    1  UNL1        0.0034
     18 C         141.4878  137.5569  163.5482 C.ar    1  UNL1       -0.0001
     19 C         142.0663  138.5247  162.5589 C.ar    1  UNL1        0.0001
     20 C         142.8590  139.7041  163.0391 C.ar    1  UNL1        0.0029
     21 C         143.0733  139.9157  164.5086 C.ar    1  UNL1        0.0035
     22 C         143.4376  140.6719  162.0499 C.ar    1  UNL1        0.0384
     23 C         143.8743  142.0342  162.5010 C.ar    1  UNL1        0.1022
     24 N         144.4529  143.0020  161.5118 N.ar    1  UNL1       -0.2224
     25 C         144.5948  142.6077  160.0716 C.ar    1  UNL1        0.1989
     26 N         144.1580  141.2454  159.6204 N.ar    1  UNL1       -0.2224
     27 C         143.5795  140.2776  160.6096 C.ar    1  UNL1        0.1022
@<TRIPOS>BOND
     1     1     2    1
     2     2    16    1
     3    16    17   ar
     4    17    18   ar
     5    18    19   ar
     6    19    20   ar
     7    20    22    1
     8    22    23   ar
     9    23    24   ar
    10    24    25   ar
    11    25    26   ar
    12    26    27   ar
    13    20    21   ar
    14     2     3    1
    15     3     4    2
    16     4     5    1
    17     4     6    1
    18     6     7   ar
    19     7     8    1
    20     7     9   ar
    21     9    10   ar
    22    10    11   ar
    23    11    12   ar
    24    12    13    1
    25    13     2    1
    26    21    16   ar
    27    12     6   ar
    28    27    22   ar
    29     5    14    1
    30     5    15    1
@<TRIPOS>MOLECULE
*****
 27 30 0 0 0
SMALL
GASTEIGER

@<TRIPOS>ATOM
      1 C         141.0529  138.8603  164.6338 C.3     1  UNL1        0.1063
      2 C         141.3526  139.8583  165.7127 C.3     1  UNL1        0.3270
      3 N         140.0784  139.2731  166.2457 N.2     1  UNL1       -0.0292
      4 C         139.5103  139.7688  167.5425 C.2     1  UNL1        0.3221
      5 N         138.2361  139.1836  168.0755 N.pl3   1  UNL1       -0.2462
      6 C         140.2163  140.8497  168.3062 C.ar    1  UNL1        0.1429
      7 C         139.6481  141.3453  169.6030 C.ar    1  UNL1        0.1502
      8 F         138.3740  140.7601  170.1360 F       1  UNL1       -0.2038
      9 C         140.3541  142.4262  170.3667 C.ar    1  UNL1        0.0301
     10 C         141.6283  143.0114  169.8337 C.ar    1  UNL1        0.0054
     11 C         142.1964  142.5157  168.5370 C.ar    1  UNL1        0.0375
     12 C         141.4904  141.4349  167.7732 C.ar    1  UNL1        0.1523
     13 O         142.0586  140.9392  166.4765 O.3     1  UNL1       -0.4393
     14 H         137.7728  138.4742  167.5742 H       1  UNL1        0.2884
     15 H         137.8632  139.5089  168.9265 H       1  UNL1        0.2884
     16 C         142.5226  140.0969  164.8051 C.ar    1  UNL1        0.0612
     17 C         143.8722  139.5472  165.1607 C.ar    1  UNL1        0.0034
     18 C         145.0422  139.7858  164.2530 C.ar    1  UNL1       -0.0001
     19 C         144.8628  140.5742  162.9896 C.ar    1  UNL1        0.0001
     20 C         143.5133  141.1240  162.6339 C.ar    1  UNL1        0.0029
     21 C         142.3432  140.8854  163.5416 C.ar    1  UNL1        0.0035
     22 C         143.3338  141.9125  161.3705 C.ar    1  UNL1        0.0384
     23 C         142.7577  143.2964  161.4256 C.ar    1  UNL1        0.1022
     24 N         142.5782  144.0848  160.1623 N.ar    1  UNL1       -0.2224
     25 C         142.9748  143.4895  158.8438 C.ar    1  UNL1        0.1989
     26 N         143.5509  142.1056  158.7887 N.ar    1  UNL1       -0.2224
     27 C         143.7304  141.3171  160.0521 C.ar    1  UNL1        0.1022
@<TRIPOS>BOND
     1     1     2    1
     2     2    16    1
     3    16    17   ar
     4    17    18   ar
     5    18    19   ar
     6    19    20   ar
     7    20    22    1
     8    22    23   ar
     9    23    24   ar
    10    24    25   ar
    11    25    26   ar
    12    26    27   ar
    13    20    21   ar
    14     2     3    1
    15     3     4    2
    16     4     5    1
    17     4     6    1
    18     6     7   ar
    19     7     8    1
    20     7     9   ar
    21     9    10   ar
    22    10    11   ar
    23    11    12   ar
    24    12    13    1
    25    13     2    1
    26    21    16   ar
    27    12     6   ar
    28    27    22   ar
    29     5    14    1
    30     5    15    1
@<TRIPOS>MOLECULE
*****
 27 30 0 0 0
SMALL
GASTEIGER

@<TRIPOS>ATOM
      1 C         143.7452  138.4555  166.2787 C.3     1  UNL1        0.1063
      2 C         142.9764  139.6551  166.7474 C.3     1  UNL1        0.3270
      3 N         143.0209  138.8610  168.0192 N.2     1  UNL1       -0.0292
      4 C         142.3739  139.3976  169.2615 C.2     1  UNL1        0.3221
      5 N         142.4184  138.6035  170.5333 N.pl3   1  UNL1       -0.2462
      6 C         141.6822  140.7284  169.2320 C.ar    1  UNL1        0.1429
      7 C         141.0352  141.2650  170.4743 C.ar    1  UNL1        0.1502
      8 F         141.0798  140.4709  171.7461 F       1  UNL1       -0.2038
      9 C         140.3436  142.5957  170.4449 C.ar    1  UNL1        0.0301
     10 C         140.2991  143.3898  169.1731 C.ar    1  UNL1        0.0054
     11 C         140.9461  142.8532  167.9308 C.ar    1  UNL1        0.0375
     12 C         141.6377  141.5225  167.9603 C.ar    1  UNL1        0.1523
     13 O         142.2848  140.9858  166.7179 O.3     1  UNL1       -0.4393
     14 H         142.8723  137.7301  170.5526 H       1  UNL1        0.2884
     15 H         141.9937  138.9557  171.3486 H       1  UNL1        0.2884
     16 C         143.1988  140.0326  165.3129 C.ar    1  UNL1        0.0612
     17 C         144.0967  139.1981  164.4483 C.ar    1  UNL1        0.0034
     18 C         144.3191  139.5756  163.0137 C.ar    1  UNL1       -0.0001
     19 C         143.6438  140.7876  162.4437 C.ar    1  UNL1        0.0001
     20 C         142.7459  141.6221  163.3082 C.ar    1  UNL1        0.0029
     21 C         142.5234  141.2446  164.7428 C.ar    1  UNL1        0.0035
     22 C         142.0705  142.8341  162.7382 C.ar    1  UNL1        0.0384
     23 C         141.2288  143.7080  163.6203 C.ar    1  UNL1        0.1022
     24 N         140.5534  144.9200  163.0504 N.ar    1  UNL1       -0.2224
     25 C         140.7196  145.2581  161.5985 C.ar    1  UNL1        0.1989
     26 N         141.5612  144.3842  160.7164 N.ar    1  UNL1       -0.2224
     27 C         142.2367  143.1722  161.2864 C.ar    1  UNL1        0.1022
@<TRIPOS>BOND
     1     1     2    1
     2     2    16    1
     3    16    17   ar
     4    17    18   ar
     5    18    19   ar
     6    19    20   ar
     7    20    22    1
     8    22    23   ar
     9    23    24   ar
    10    24    25   ar
    11    25    26   ar
    12    26    27   ar
    13    20    21   ar
    14     2     3    1
    15     3     4    2
    16     4     5    1
    17     4     6    1
    18     6     7   ar
    19     7     8    1
    20     7     9   ar
    21     9    10   ar
    22    10    11   ar
    23    11    12   ar
    24    12    13    1
    25    13     2    1
    26    21    16   ar
    27    12     6   ar
    28    27    22   ar
    29     5    14    1
    30     5    15    1
