@<TRIPOS>MOLECULE
*****
 34 38 0 0 0
SMALL
GASTEIGER

@<TRIPOS>ATOM
      1 C         142.5206  145.1203  155.5354 C.3     1  UNL1        0.0534
      2 C         142.1345  144.8970  156.9676 C.ar    1  UNL1        0.0728
      3 N         142.8132  143.8261  157.7691 N.ar    1  UNL1       -0.2469
      4 C         142.4270  143.6029  159.2013 C.ar    1  UNL1        0.0985
      5 C         141.3622  144.4505  159.8319 C.ar    1  UNL1        0.0204
      6 C         140.6835  145.5214  159.0303 C.ar    1  UNL1        0.0175
      7 C         141.0696  145.7447  157.5982 C.ar    1  UNL1        0.0667
      8 C         140.9760  144.2273  161.2641 C.ar    1  UNL1        0.0021
      9 C         140.2168  145.2844  162.0097 C.ar    1  UNL1        0.0016
     10 C         139.8307  145.0611  163.4418 C.ar    1  UNL1        0.0197
     11 C         140.2038  143.7807  164.1283 C.ar    1  UNL1        0.0892
     12 N         139.9620  143.2818  165.5222 N.ar    1  UNL1       -0.2239
     13 C         140.5718  141.9162  165.6379 C.ar    1  UNL1        0.1655
     14 S         141.1905  141.5713  164.3157 S.2     1  UNL1       -0.0514
     15 C         140.9630  142.7236  163.3827 C.ar    1  UNL1        0.0497
     16 C         141.3492  142.9469  161.9506 C.ar    1  UNL1        0.0081
     17 N         140.5643  141.0480  166.8612 N.am    1  UNL1       -0.2641
     18 C         141.7563  141.0245  167.7715 C.2     1  UNL1        0.2270
     19 O         142.9557  141.8692  167.4586 O.2     1  UNL1       -0.2747
     20 H         139.7771  140.4936  167.0665 H       1  UNL1        0.1567
     21 C         141.7488  140.1564  168.9947 C.3     1  UNL1        0.0769
     22 C         142.3912  139.0959  169.8389 C.3     1  UNL1        0.0096
     23 C         141.0936  139.7132  170.2691 C.3     1  UNL1        0.0096
     24 N         140.3909  146.8156  156.7966 N.am    1  UNL1       -0.2488
     25 C         139.2110  146.4740  155.9358 C.2     1  UNL1        0.4053
     26 O         138.7097  145.0615  155.8766 O.2     1  UNL1       -0.2261
     27 H         140.7199  147.7427  156.8355 H       1  UNL1        0.1582
     28 O         138.5323  147.5449  155.1343 O.3     1  UNL1       -0.4381
     29 C         139.0208  148.9612  155.2093 C.3     1  UNL1        0.1755
     30 C         138.4623  149.8934  156.2433 C.3     1  UNL1        0.0758
     31 C         138.9507  151.3096  156.3184 C.3     1  UNL1        0.1459
     32 O         139.9977  151.7937  155.3596 O.3     1  UNL1       -0.3535
     33 C         140.5562  150.8615  154.3256 C.3     1  UNL1        0.1459
     34 C         140.0677  149.4453  154.2505 C.3     1  UNL1        0.0758
@<TRIPOS>BOND
     1     1     2    1
     2     2     3   ar
     3     3     4   ar
     4     4     5   ar
     5     5     8    1
     6     8     9   ar
     7     9    10   ar
     8    10    11   ar
     9    11    12   ar
    10    12    13   ar
    11    13    17    1
    12    17    18   am
    13    18    19    2
    14    18    21    1
    15    21    22    1
    16    22    23    1
    17    13    14   ar
    18    14    15   ar
    19    15    16   ar
    20     5     6   ar
    21     6     7   ar
    22     7    24    1
    23    24    25   am
    24    25    26    2
    25    25    28    1
    26    28    29    1
    27    29    30    1
    28    30    31    1
    29    31    32    1
    30    32    33    1
    31    33    34    1
    32     7     2   ar
    33    34    29    1
    34    16     8   ar
    35    15    11   ar
    36    23    21    1
    37    17    20    1
    38    24    27    1
@<TRIPOS>MOLECULE
*****
 34 38 0 0 0
SMALL
GASTEIGER

@<TRIPOS>ATOM
      1 C         138.3404  139.1347  166.8466 C.3     1  UNL1        0.0534
      2 C         138.9201  139.6613  165.5674 C.ar    1  UNL1        0.0728
      3 N         138.1314  139.5738  164.2945 N.ar    1  UNL1       -0.2469
      4 C         138.7113  140.1004  163.0152 C.ar    1  UNL1        0.0985
      5 C         140.0798  140.7145  163.0089 C.ar    1  UNL1        0.0204
      6 C         140.8685  140.8020  164.2818 C.ar    1  UNL1        0.0175
      7 C         140.2887  140.2754  165.5610 C.ar    1  UNL1        0.0667
      8 C         140.6596  141.2412  161.7296 C.ar    1  UNL1        0.0021
      9 C         139.7527  141.7488  160.6480 C.ar    1  UNL1        0.0016
     10 C         140.3326  142.2754  159.3688 C.ar    1  UNL1        0.0197
     11 C         141.8194  142.2944  159.1712 C.ar    1  UNL1        0.0892
     12 N         142.6739  142.7510  158.0260 N.ar    1  UNL1       -0.2239
     13 C         144.1089  142.5255  158.3998 C.ar    1  UNL1        0.1655
     14 S         144.1413  141.9297  159.7760 S.2     1  UNL1       -0.0514
     15 C         142.7263  141.7869  160.2527 C.ar    1  UNL1        0.0497
     16 C         142.1464  141.2603  161.5319 C.ar    1  UNL1        0.0081
     17 N         145.3022  142.8406  157.5471 N.am    1  UNL1       -0.2641
     18 C         145.9456  141.7604  156.7291 C.2     1  UNL1        0.2270
     19 O         145.3958  140.3651  156.7637 O.2     1  UNL1       -0.2747
     20 H         145.6630  143.7563  157.5244 H       1  UNL1        0.1567
     21 C         147.1388  142.0754  155.8764 C.3     1  UNL1        0.0769
     22 C         147.7499  142.8006  154.7142 C.3     1  UNL1        0.0096
     23 C         148.5943  141.8958  155.5617 C.3     1  UNL1        0.0096
     24 N         141.0774  140.3629  166.8339 N.am    1  UNL1       -0.2488
     25 C         142.2511  139.4550  167.0528 C.2     1  UNL1        0.4053
     26 O         142.6362  138.4595  165.9989 O.2     1  UNL1       -0.2261
     27 H         140.8247  141.0162  167.5257 H       1  UNL1        0.1582
     28 O         143.0399  139.5424  168.3258 O.3     1  UNL1       -0.4381
     29 C         142.6178  140.4942  169.4056 C.3     1  UNL1        0.1755
     30 C         141.5365  140.1036  170.3691 C.3     1  UNL1        0.0758
     31 C         141.1145  141.0553  171.4490 C.3     1  UNL1        0.1459
     32 O         141.7737  142.3976  171.5653 O.3     1  UNL1       -0.3535
     33 C         142.8550  142.7882  170.6019 C.3     1  UNL1        0.1459
     34 C         143.2771  141.8365  169.5220 C.3     1  UNL1        0.0758
@<TRIPOS>BOND
     1     1     2    1
     2     2     3   ar
     3     3     4   ar
     4     4     5   ar
     5     5     8    1
     6     8     9   ar
     7     9    10   ar
     8    10    11   ar
     9    11    12   ar
    10    12    13   ar
    11    13    17    1
    12    17    18   am
    13    18    19    2
    14    18    21    1
    15    21    22    1
    16    22    23    1
    17    13    14   ar
    18    14    15   ar
    19    15    16   ar
    20     5     6   ar
    21     6     7   ar
    22     7    24    1
    23    24    25   am
    24    25    26    2
    25    25    28    1
    26    28    29    1
    27    29    30    1
    28    30    31    1
    29    31    32    1
    30    32    33    1
    31    33    34    1
    32     7     2   ar
    33    34    29    1
    34    16     8   ar
    35    15    11   ar
    36    23    21    1
    37    17    20    1
    38    24    27    1
@<TRIPOS>MOLECULE
*****
 34 38 0 0 0
SMALL
GASTEIGER

@<TRIPOS>ATOM
      1 C         138.4501  144.7997  165.4963 C.3     1  UNL1        0.0534
      2 C         138.7757  144.0854  164.2182 C.ar    1  UNL1        0.0728
      3 N         137.7813  144.0666  163.0953 N.ar    1  UNL1       -0.2469
      4 C         138.1069  143.3523  161.8170 C.ar    1  UNL1        0.0985
      5 C         139.4268  142.6568  161.6618 C.ar    1  UNL1        0.0204
      6 C         140.4211  142.6756  162.7847 C.ar    1  UNL1        0.0175
      7 C         140.0956  143.3899  164.0629 C.ar    1  UNL1        0.0667
      8 C         139.7524  141.9424  160.3836 C.ar    1  UNL1        0.0021
      9 C         140.2241  142.7186  159.1898 C.ar    1  UNL1        0.0016
     10 C         140.5497  142.0042  157.9117 C.ar    1  UNL1        0.0197
     11 C         140.4036  140.5137  157.8273 C.ar    1  UNL1        0.0892
     12 N         140.6480  139.5429  156.7102 N.ar    1  UNL1       -0.2239
     13 C         140.3273  138.1668  157.2136 C.ar    1  UNL1        0.1655
     14 S         139.8848  138.2871  158.6418 S.2     1  UNL1       -0.0514
     15 C         139.9320  139.7376  159.0211 C.ar    1  UNL1        0.0497
     16 C         139.6064  140.4520  160.2992 C.ar    1  UNL1        0.0081
     17 N         140.4310  136.8938  156.4270 N.am    1  UNL1       -0.2641
     18 C         141.7229  136.1321  156.3997 C.2     1  UNL1        0.2270
     19 O         142.9112  136.6434  157.1591 O.2     1  UNL1       -0.2747
     20 H         139.6511  136.5582  155.9286 H       1  UNL1        0.1567
     21 C         141.8266  134.8591  155.6131 C.3     1  UNL1        0.0769
     22 C         141.6983  133.3667  155.5343 C.3     1  UNL1        0.0096
     23 C         142.1346  134.1467  154.3296 C.3     1  UNL1        0.0096
     24 N         141.0899  143.4086  165.1858 N.am    1  UNL1       -0.2488
     25 C         140.9910  142.4006  166.2921 C.2     1  UNL1        0.4053
     26 O         139.8977  141.3737  166.2756 O.2     1  UNL1       -0.2261
     27 H         141.8075  144.0826  165.1967 H       1  UNL1        0.1582
     28 O         141.9853  142.4194  167.4151 O.3     1  UNL1       -0.4381
     29 C         141.5126  142.3440  168.8367 C.3     1  UNL1        0.1755
     30 C         140.3497  143.1784  169.2856 C.3     1  UNL1        0.0758
     31 C         139.8770  143.1030  170.7072 C.3     1  UNL1        0.1459
     32 O         140.5673  142.1934  171.6798 O.3     1  UNL1       -0.3535
     33 C         141.7302  141.3591  171.2309 C.3     1  UNL1        0.1459
     34 C         142.2029  141.4344  169.8093 C.3     1  UNL1        0.0758
@<TRIPOS>BOND
     1     1     2    1
     2     2     3   ar
     3     3     4   ar
     4     4     5   ar
     5     5     8    1
     6     8     9   ar
     7     9    10   ar
     8    10    11   ar
     9    11    12   ar
    10    12    13   ar
    11    13    17    1
    12    17    18   am
    13    18    19    2
    14    18    21    1
    15    21    22    1
    16    22    23    1
    17    13    14   ar
    18    14    15   ar
    19    15    16   ar
    20     5     6   ar
    21     6     7   ar
    22     7    24    1
    23    24    25   am
    24    25    26    2
    25    25    28    1
    26    28    29    1
    27    29    30    1
    28    30    31    1
    29    31    32    1
    30    32    33    1
    31    33    34    1
    32     7     2   ar
    33    34    29    1
    34    16     8   ar
    35    15    11   ar
    36    23    21    1
    37    17    20    1
    38    24    27    1
@<TRIPOS>MOLECULE
*****
 34 38 0 0 0
SMALL
GASTEIGER

@<TRIPOS>ATOM
      1 C         138.4802  138.3291  165.8449 C.3     1  UNL1        0.0534
      2 C         138.9407  139.4092  164.9114 C.ar    1  UNL1        0.0728
      3 N         138.2936  139.5648  163.5671 N.ar    1  UNL1       -0.2469
      4 C         138.7541  140.6449  162.6336 C.ar    1  UNL1        0.0985
      5 C         139.8616  141.5694  163.0444 C.ar    1  UNL1        0.0204
      6 C         140.5086  141.4138  164.3887 C.ar    1  UNL1        0.0175
      7 C         140.0482  140.3337  165.3222 C.ar    1  UNL1        0.0667
      8 C         140.3220  142.6495  162.1109 C.ar    1  UNL1        0.0021
      9 C         141.0656  143.8370  162.6465 C.ar    1  UNL1        0.0016
     10 C         141.5260  144.9171  161.7131 C.ar    1  UNL1        0.0197
     11 C         141.2429  144.8096  160.2439 C.ar    1  UNL1        0.0892
     12 N         141.5701  145.7107  159.0902 N.ar    1  UNL1       -0.2239
     13 C         141.0287  145.0801  157.8415 C.ar    1  UNL1        0.1655
     14 S         140.3670  143.7893  158.2236 S.2     1  UNL1       -0.0514
     15 C         140.4994  143.6221  159.7083 C.ar    1  UNL1        0.0497
     16 C         140.0389  142.5421  160.6418 C.ar    1  UNL1        0.0081
     17 N         141.1311  145.6416  156.4543 N.am    1  UNL1       -0.2641
     18 C         140.2285  146.7621  156.0303 C.2     1  UNL1        0.2270
     19 O         139.2234  147.3210  156.9935 O.2     1  UNL1       -0.2747
     20 H         141.7907  145.2748  155.8222 H       1  UNL1        0.1567
     21 C         140.3308  147.3236  154.6432 C.3     1  UNL1        0.0769
     22 C         140.7248  147.1674  153.2043 C.3     1  UNL1        0.0096
     23 C         140.1141  148.4524  153.6794 C.3     1  UNL1        0.0096
     24 N         140.6953  140.1781  166.6664 N.am    1  UNL1       -0.2488
     25 C         142.0285  139.5007  166.7831 C.2     1  UNL1        0.4053
     26 O         142.7147  138.9789  165.5555 O.2     1  UNL1       -0.2261
     27 H         140.2450  140.5205  167.4721 H       1  UNL1        0.1582
     28 O         142.6756  139.3451  168.1274 O.3     1  UNL1       -0.4381
     29 C         142.3258  140.2865  169.2417 C.3     1  UNL1        0.1755
     30 C         141.3024  139.8907  170.2644 C.3     1  UNL1        0.0758
     31 C         140.9526  140.8320  171.3786 C.3     1  UNL1        0.1459
     32 O         141.6262  142.1691  171.4701 O.3     1  UNL1       -0.3535
     33 C         142.6496  142.5649  170.4473 C.3     1  UNL1        0.1459
     34 C         142.9994  141.6236  169.3331 C.3     1  UNL1        0.0758
@<TRIPOS>BOND
     1     1     2    1
     2     2     3   ar
     3     3     4   ar
     4     4     5   ar
     5     5     8    1
     6     8     9   ar
     7     9    10   ar
     8    10    11   ar
     9    11    12   ar
    10    12    13   ar
    11    13    17    1
    12    17    18   am
    13    18    19    2
    14    18    21    1
    15    21    22    1
    16    22    23    1
    17    13    14   ar
    18    14    15   ar
    19    15    16   ar
    20     5     6   ar
    21     6     7   ar
    22     7    24    1
    23    24    25   am
    24    25    26    2
    25    25    28    1
    26    28    29    1
    27    29    30    1
    28    30    31    1
    29    31    32    1
    30    32    33    1
    31    33    34    1
    32     7     2   ar
    33    34    29    1
    34    16     8   ar
    35    15    11   ar
    36    23    21    1
    37    17    20    1
    38    24    27    1
@<TRIPOS>MOLECULE
*****
 34 38 0 0 0
SMALL
GASTEIGER

@<TRIPOS>ATOM
      1 C         137.9135  138.6510  166.6473 C.3     1  UNL1        0.0534
      2 C         138.5449  138.7552  165.2907 C.ar    1  UNL1        0.0728
      3 N         138.5407  137.5721  164.3686 N.ar    1  UNL1       -0.2469
      4 C         139.1721  137.6764  163.0119 C.ar    1  UNL1        0.0985
      5 C         139.8077  138.9637  162.5774 C.ar    1  UNL1        0.0204
      6 C         139.8118  140.1468  163.4995 C.ar    1  UNL1        0.0175
      7 C         139.1805  140.0426  164.8561 C.ar    1  UNL1        0.0667
      8 C         140.4391  139.0679  161.2207 C.ar    1  UNL1        0.0021
      9 C         139.6412  138.7362  159.9946 C.ar    1  UNL1        0.0016
     10 C         140.2726  138.8405  158.6380 C.ar    1  UNL1        0.0197
     11 C         141.7019  139.2764  158.5075 C.ar    1  UNL1        0.0892
     12 N         142.5868  139.4706  157.3119 N.ar    1  UNL1       -0.2239
     13 C         143.9317  139.9223  157.7992 C.ar    1  UNL1        0.1655
     14 S         143.8778  140.0073  159.2958 S.2     1  UNL1       -0.0514
     15 C         142.4998  139.6082  159.7336 C.ar    1  UNL1        0.0497
     16 C         141.8684  139.5039  161.0902 C.ar    1  UNL1        0.0081
     17 N         145.1215  140.2342  156.9406 N.am    1  UNL1       -0.2641
     18 C         145.6417  141.6388  156.8616 C.2     1  UNL1        0.2270
     19 O         144.9722  142.7316  157.6412 O.2     1  UNL1       -0.2747
     20 H         145.5609  139.5170  156.4289 H       1  UNL1        0.1567
     21 C         146.8315  141.9508  156.0030 C.3     1  UNL1        0.0769
     22 C         148.3182  142.0481  155.8291 C.3     1  UNL1        0.0096
     23 C         147.4055  142.3938  154.6900 C.3     1  UNL1        0.0096
     24 N         139.1847  141.2257  165.7782 N.am    1  UNL1       -0.2488
     25 C         140.4335  141.5901  166.5249 C.2     1  UNL1        0.4053
     26 O         141.6781  140.7715  166.3496 O.2     1  UNL1       -0.2261
     27 H         138.3678  141.7630  165.8932 H       1  UNL1        0.1582
     28 O         140.4377  142.7732  167.4470 O.3     1  UNL1       -0.4381
     29 C         140.9101  142.6193  168.8624 C.3     1  UNL1        0.1755
     30 C         139.9326  142.2714  169.9457 C.3     1  UNL1        0.0758
     31 C         140.4049  142.1175  171.3610 C.3     1  UNL1        0.1459
     32 O         141.8547  142.3115  171.6930 O.3     1  UNL1       -0.3535
     33 C         142.8322  142.6594  170.6098 C.3     1  UNL1        0.1459
     34 C         142.3599  142.8133  169.1944 C.3     1  UNL1        0.0758
@<TRIPOS>BOND
     1     1     2    1
     2     2     3   ar
     3     3     4   ar
     4     4     5   ar
     5     5     8    1
     6     8     9   ar
     7     9    10   ar
     8    10    11   ar
     9    11    12   ar
    10    12    13   ar
    11    13    17    1
    12    17    18   am
    13    18    19    2
    14    18    21    1
    15    21    22    1
    16    22    23    1
    17    13    14   ar
    18    14    15   ar
    19    15    16   ar
    20     5     6   ar
    21     6     7   ar
    22     7    24    1
    23    24    25   am
    24    25    26    2
    25    25    28    1
    26    28    29    1
    27    29    30    1
    28    30    31    1
    29    31    32    1
    30    32    33    1
    31    33    34    1
    32     7     2   ar
    33    34    29    1
    34    16     8   ar
    35    15    11   ar
    36    23    21    1
    37    17    20    1
    38    24    27    1
@<TRIPOS>MOLECULE
*****
 34 38 0 0 0
SMALL
GASTEIGER

@<TRIPOS>ATOM
      1 C         138.6967  144.7571  165.0532 C.3     1  UNL1        0.0534
      2 C         139.5143  144.0370  164.0223 C.ar    1  UNL1        0.0728
      3 N         139.3587  144.3775  162.5698 N.ar    1  UNL1       -0.2469
      4 C         140.1764  143.6573  161.5388 C.ar    1  UNL1        0.0985
      5 C         141.1495  142.5966  161.9604 C.ar    1  UNL1        0.0204
      6 C         141.3051  142.2561  163.4129 C.ar    1  UNL1        0.0175
      7 C         140.4875  142.9762  164.4438 C.ar    1  UNL1        0.0667
      8 C         141.9672  141.8764  160.9294 C.ar    1  UNL1        0.0021
      9 C         141.8630  140.3860  160.7967 C.ar    1  UNL1        0.0016
     10 C         142.6806  139.6659  159.7658 C.ar    1  UNL1        0.0197
     11 C         143.6025  140.4362  158.8676 C.ar    1  UNL1        0.0892
     12 N         144.5255  140.0031  157.7673 N.ar    1  UNL1       -0.2239
     13 C         145.2001  141.2259  157.2200 C.ar    1  UNL1        0.1655
     14 S         144.6941  142.4147  157.9821 S.2     1  UNL1       -0.0514
     15 C         143.7067  141.9266  159.0003 C.ar    1  UNL1        0.0497
     16 C         142.8891  142.6468  160.0312 C.ar    1  UNL1        0.0081
     17 N         146.2045  141.2549  156.1062 N.am    1  UNL1       -0.2641
     18 C         147.4089  142.1435  156.2054 C.2     1  UNL1        0.2270
     19 O         147.6090  143.0030  157.4184 O.2     1  UNL1       -0.2747
     20 H         146.0732  140.6908  155.3101 H       1  UNL1        0.1567
     21 C         148.4133  142.1725  155.0917 C.3     1  UNL1        0.0769
     22 C         148.8706  142.7112  153.7685 C.3     1  UNL1        0.0096
     23 C         149.6955  141.6841  154.4857 C.3     1  UNL1        0.0096
     24 N         140.6431  142.6357  165.8964 N.am    1  UNL1       -0.2488
     25 C         139.9074  141.4635  166.4749 C.2     1  UNL1        0.4053
     26 O         139.0160  140.6318  165.6008 O.2     1  UNL1       -0.2261
     27 H         141.2281  143.1815  166.4700 H       1  UNL1        0.1582
     28 O         140.0630  141.1229  167.9274 O.3     1  UNL1       -0.4381
     29 C         140.9081  141.9885  168.8143 C.3     1  UNL1        0.1755
     30 C         142.3371  141.6191  169.0816 C.3     1  UNL1        0.0758
     31 C         143.1822  142.4846  169.9685 C.3     1  UNL1        0.1459
     32 O         142.5983  143.7196  170.5881 O.3     1  UNL1       -0.3535
     33 C         141.1693  144.0890  170.3208 C.3     1  UNL1        0.1459
     34 C         140.3242  143.2235  169.4339 C.3     1  UNL1        0.0758
@<TRIPOS>BOND
     1     1     2    1
     2     2     3   ar
     3     3     4   ar
     4     4     5   ar
     5     5     8    1
     6     8     9   ar
     7     9    10   ar
     8    10    11   ar
     9    11    12   ar
    10    12    13   ar
    11    13    17    1
    12    17    18   am
    13    18    19    2
    14    18    21    1
    15    21    22    1
    16    22    23    1
    17    13    14   ar
    18    14    15   ar
    19    15    16   ar
    20     5     6   ar
    21     6     7   ar
    22     7    24    1
    23    24    25   am
    24    25    26    2
    25    25    28    1
    26    28    29    1
    27    29    30    1
    28    30    31    1
    29    31    32    1
    30    32    33    1
    31    33    34    1
    32     7     2   ar
    33    34    29    1
    34    16     8   ar
    35    15    11   ar
    36    23    21    1
    37    17    20    1
    38    24    27    1
@<TRIPOS>MOLECULE
*****
 34 38 0 0 0
SMALL
GASTEIGER

@<TRIPOS>ATOM
      1 C         138.8421  138.4716  164.9279 C.3     1  UNL1        0.0534
      2 C         138.9978  139.2409  163.6497 C.ar    1  UNL1        0.0728
      3 N         138.2480  138.8154  162.4221 N.ar    1  UNL1       -0.2469
      4 C         138.4038  139.5848  161.1439 C.ar    1  UNL1        0.0985
      5 C         139.3093  140.7795  161.0932 C.ar    1  UNL1        0.0204
      6 C         140.0591  141.2049  162.3207 C.ar    1  UNL1        0.0175
      7 C         139.9034  140.4357  163.5989 C.ar    1  UNL1        0.0667
      8 C         139.4651  141.5489  159.8149 C.ar    1  UNL1        0.0021
      9 C         139.3098  140.8514  158.4961 C.ar    1  UNL1        0.0016
     10 C         139.4655  141.6208  157.2179 C.ar    1  UNL1        0.0197
     11 C         139.7766  143.0876  157.2585 C.ar    1  UNL1        0.0892
     12 N         139.9850  144.0999  156.1714 N.ar    1  UNL1       -0.2239
     13 C         140.2690  145.4230  156.8184 C.ar    1  UNL1        0.1655
     14 S         140.2363  145.2284  158.3054 S.2     1  UNL1       -0.0514
     15 C         139.9319  143.7850  158.5774 C.ar    1  UNL1        0.0497
     16 C         139.7762  143.0157  159.8555 C.ar    1  UNL1        0.0081
     17 N         140.5386  146.7142  156.1039 N.am    1  UNL1       -0.2641
     18 C         139.4852  147.3180  155.2231 C.2     1  UNL1        0.2270
     19 O         138.1623  146.6307  155.0568 O.2     1  UNL1       -0.2747
     20 H         141.4068  147.1652  156.2131 H       1  UNL1        0.1567
     21 C         139.7547  148.6090  154.5086 C.3     1  UNL1        0.0769
     22 C         140.4967  149.3827  153.4594 C.3     1  UNL1        0.0096
     23 C         139.4796  150.0715  154.3202 C.3     1  UNL1        0.0096
     24 N         140.6532  140.8611  164.8264 N.am    1  UNL1       -0.2488
     25 C         140.2476  142.1054  165.5594 C.2     1  UNL1        0.4053
     26 O         139.0922  142.9243  165.0649 O.2     1  UNL1       -0.2261
     27 H         141.4115  140.3237  165.1510 H       1  UNL1        0.1582
     28 O         140.9974  142.5308  166.7869 O.3     1  UNL1       -0.4381
     29 C         140.4615  142.1949  168.1471 C.3     1  UNL1        0.1755
     30 C         139.9311  140.8198  168.4257 C.3     1  UNL1        0.0758
     31 C         139.3952  140.4839  169.7858 C.3     1  UNL1        0.1459
     32 O         139.3898  141.5232  170.8674 O.3     1  UNL1       -0.3535
     33 C         139.9202  142.8983  170.5888 C.3     1  UNL1        0.1459
     34 C         140.4561  143.2342  169.2287 C.3     1  UNL1        0.0758
@<TRIPOS>BOND
     1     1     2    1
     2     2     3   ar
     3     3     4   ar
     4     4     5   ar
     5     5     8    1
     6     8     9   ar
     7     9    10   ar
     8    10    11   ar
     9    11    12   ar
    10    12    13   ar
    11    13    17    1
    12    17    18   am
    13    18    19    2
    14    18    21    1
    15    21    22    1
    16    22    23    1
    17    13    14   ar
    18    14    15   ar
    19    15    16   ar
    20     5     6   ar
    21     6     7   ar
    22     7    24    1
    23    24    25   am
    24    25    26    2
    25    25    28    1
    26    28    29    1
    27    29    30    1
    28    30    31    1
    29    31    32    1
    30    32    33    1
    31    33    34    1
    32     7     2   ar
    33    34    29    1
    34    16     8   ar
    35    15    11   ar
    36    23    21    1
    37    17    20    1
    38    24    27    1
@<TRIPOS>MOLECULE
*****
 34 38 0 0 0
SMALL
GASTEIGER

@<TRIPOS>ATOM
      1 C         138.2001  141.8782  154.3247 C.3     1  UNL1        0.0534
      2 C         138.3622  141.3535  155.7205 C.ar    1  UNL1        0.0728
      3 N         139.6978  140.8506  156.1823 N.ar    1  UNL1       -0.2469
      4 C         139.8599  140.3258  157.5782 C.ar    1  UNL1        0.0985
      5 C         138.6865  140.3040  158.5122 C.ar    1  UNL1        0.0204
      6 C         137.3509  140.8069  158.0505 C.ar    1  UNL1        0.0175
      7 C         137.1887  141.3316  156.6546 C.ar    1  UNL1        0.0667
      8 C         138.8486  139.7793  159.9081 C.ar    1  UNL1        0.0021
      9 C         139.4872  138.4415  160.1370 C.ar    1  UNL1        0.0016
     10 C         139.6493  137.9168  161.5329 C.ar    1  UNL1        0.0197
     11 C         139.1728  138.7299  162.6998 C.ar    1  UNL1        0.0892
     12 N         139.1975  138.4749  164.1778 N.ar    1  UNL1       -0.2239
     13 C         138.5741  139.6550  164.8623 C.ar    1  UNL1        0.1655
     14 S         138.1641  140.6395  163.8074 S.2     1  UNL1       -0.0514
     15 C         138.5341  140.0677  162.4709 C.ar    1  UNL1        0.0497
     16 C         138.3720  140.5924  161.0751 C.ar    1  UNL1        0.0081
     17 N         138.3925  139.8216  166.3420 N.am    1  UNL1       -0.2641
     18 C         139.5900  139.9788  167.2315 C.2     1  UNL1        0.2270
     19 O         140.9691  139.9694  166.6414 O.2     1  UNL1       -0.2747
     20 H         137.4874  139.8277  166.7293 H       1  UNL1        0.1567
     21 C         139.4085  140.1453  168.7111 C.3     1  UNL1        0.0769
     22 C         138.5071  140.2573  169.9049 C.3     1  UNL1        0.0096
     23 C         139.9954  140.3218  170.0802 C.3     1  UNL1        0.0096
     24 N         135.8531  141.8345  156.1929 N.am    1  UNL1       -0.2488
     25 C         134.8507  140.8794  155.6159 C.2     1  UNL1        0.4053
     26 O         135.1839  139.4214  155.5006 O.2     1  UNL1       -0.2261
     27 H         135.6344  142.7914  156.2685 H       1  UNL1        0.1582
     28 O         133.5151  141.3823  155.1541 O.3     1  UNL1       -0.4381
     29 C         132.2596  140.8841  155.8065 C.3     1  UNL1        0.1755
     30 C         132.3401  139.8877  156.9250 C.3     1  UNL1        0.0758
     31 C         131.0848  139.3895  157.5774 C.3     1  UNL1        0.1459
     32 O         129.7488  139.8876  157.1114 O.3     1  UNL1       -0.3535
     33 C         129.6683  140.8839  155.9930 C.3     1  UNL1        0.1459
     34 C         130.9237  141.3821  155.3406 C.3     1  UNL1        0.0758
@<TRIPOS>BOND
     1     1     2    1
     2     2     3   ar
     3     3     4   ar
     4     4     5   ar
     5     5     8    1
     6     8     9   ar
     7     9    10   ar
     8    10    11   ar
     9    11    12   ar
    10    12    13   ar
    11    13    17    1
    12    17    18   am
    13    18    19    2
    14    18    21    1
    15    21    22    1
    16    22    23    1
    17    13    14   ar
    18    14    15   ar
    19    15    16   ar
    20     5     6   ar
    21     6     7   ar
    22     7    24    1
    23    24    25   am
    24    25    26    2
    25    25    28    1
    26    28    29    1
    27    29    30    1
    28    30    31    1
    29    31    32    1
    30    32    33    1
    31    33    34    1
    32     7     2   ar
    33    34    29    1
    34    16     8   ar
    35    15    11   ar
    36    23    21    1
    37    17    20    1
    38    24    27    1
@<TRIPOS>MOLECULE
*****
 34 38 0 0 0
SMALL
GASTEIGER

@<TRIPOS>ATOM
      1 C         143.7126  140.6310  154.8595 C.3     1  UNL1        0.0534
      2 C         143.6695  140.5560  156.3570 C.ar    1  UNL1        0.0728
      3 N         144.1780  141.7021  157.1803 N.ar    1  UNL1       -0.2469
      4 C         144.1349  141.6270  158.6779 C.ar    1  UNL1        0.0985
      5 C         143.5833  140.4059  159.3520 C.ar    1  UNL1        0.0204
      6 C         143.0748  139.2598  158.5287 C.ar    1  UNL1        0.0175
      7 C         143.1179  139.3348  157.0313 C.ar    1  UNL1        0.0667
      8 C         143.5402  140.3309  160.8496 C.ar    1  UNL1        0.0021
      9 C         144.0945  139.1297  161.5566 C.ar    1  UNL1        0.0016
     10 C         144.0513  139.0547  163.0541 C.ar    1  UNL1        0.0197
     11 C         143.4539  140.1809  163.8445 C.ar    1  UNL1        0.0892
     12 N         143.2734  140.3868  165.3194 N.ar    1  UNL1       -0.2239
     13 C         142.6076  141.7153  165.5238 C.ar    1  UNL1        0.1655
     14 S         142.3766  142.3304  164.1753 S.2     1  UNL1       -0.0514
     15 C         142.8996  141.3820  163.1375 C.ar    1  UNL1        0.0497
     16 C         142.9427  141.4570  161.6401 C.ar    1  UNL1        0.0081
     17 N         142.2378  142.3222  166.8448 N.am    1  UNL1       -0.2641
     18 C         140.8957  142.0378  167.4513 C.2     1  UNL1        0.2270
     19 O         139.9235  141.1465  166.7369 O.2     1  UNL1       -0.2747
     20 H         142.8759  142.9072  167.3137 H       1  UNL1        0.1567
     21 C         140.5258  142.6447  168.7723 C.3     1  UNL1        0.0769
     22 C         140.4723  143.8325  169.6867 C.3     1  UNL1        0.0096
     23 C         139.9387  142.5080  170.1457 C.3     1  UNL1        0.0096
     24 N         142.6094  138.1886  156.2080 N.am    1  UNL1       -0.2488
     25 C         143.5753  137.3021  155.4792 C.2     1  UNL1        0.4053
     26 O         145.0497  137.5617  155.5736 O.2     1  UNL1       -0.2261
     27 H         141.6418  138.0183  156.1459 H       1  UNL1        0.1582
     28 O         143.0668  136.1560  154.6559 O.3     1  UNL1       -0.4381
     29 C         142.7960  134.8299  155.3027 C.3     1  UNL1        0.1755
     30 C         143.5292  134.4413  156.5522 C.3     1  UNL1        0.0758
     31 C         143.2584  133.1153  157.1990 C.3     1  UNL1        0.1459
     32 O         142.2544  132.1780  156.5964 O.3     1  UNL1       -0.3535
     33 C         141.5211  132.5667  155.3469 C.3     1  UNL1        0.1459
     34 C         141.7919  133.8926  154.7000 C.3     1  UNL1        0.0758
@<TRIPOS>BOND
     1     1     2    1
     2     2     3   ar
     3     3     4   ar
     4     4     5   ar
     5     5     8    1
     6     8     9   ar
     7     9    10   ar
     8    10    11   ar
     9    11    12   ar
    10    12    13   ar
    11    13    17    1
    12    17    18   am
    13    18    19    2
    14    18    21    1
    15    21    22    1
    16    22    23    1
    17    13    14   ar
    18    14    15   ar
    19    15    16   ar
    20     5     6   ar
    21     6     7   ar
    22     7    24    1
    23    24    25   am
    24    25    26    2
    25    25    28    1
    26    28    29    1
    27    29    30    1
    28    30    31    1
    29    31    32    1
    30    32    33    1
    31    33    34    1
    32     7     2   ar
    33    34    29    1
    34    16     8   ar
    35    15    11   ar
    36    23    21    1
    37    17    20    1
    38    24    27    1
