@<TRIPOS>MOLECULE
*****
 30 33 0 0 0
SMALL
GASTEIGER

@<TRIPOS>ATOM
      1 N         139.2773  140.4258  167.1325 N.pl3   1  UNL1       -0.3362
      2 H         138.3817  140.2269  167.4897 H       1  UNL1        0.1465
      3 C         140.4990  139.9884  167.8851 C.2     1  UNL1        0.0457
      4 C         140.5667  140.1659  169.3730 C.2     1  UNL1        0.1096
      5 C         141.7885  139.7285  170.1256 C.2     1  UNL1        0.2410
      6 N         142.9423  139.1138  169.3901 N.2     1  UNL1       -0.0338
      7 C         142.8744  138.9364  167.9022 C.2     1  UNL1        0.3606
      8 N         143.8483  138.3663  166.9139 N.2     1  UNL1       -0.0343
      9 C         143.2285  138.4513  165.5506 C.2     1  UNL1        0.2321
     10 C         141.8716  139.0739  165.6963 C.2     1  UNL1        0.0421
     11 C         141.6528  139.3738  167.1497 C.3     1  UNL1        0.1732
     12 C         139.4130  140.7805  170.1084 C.2     1  UNL1        0.2474
     13 N         139.5437  142.1553  170.6942 N.am    1  UNL1       -0.3252
     14 O         138.1285  140.0206  170.2581 O.2     1  UNL1       -0.2702
     15 H         140.3867  142.6541  170.5959 H       1  UNL1        0.1453
     16 H         138.7864  142.5587  171.1768 H       1  UNL1        0.1453
     17 N         139.7059  142.6467  163.2424 N.pl3   1  UNL1       -0.2919
     18 C         138.8927  141.3876  163.3015 C.3     1  UNL1        0.0939
     19 C         138.7498  140.6473  164.5983 C.3     1  UNL1        0.0410
     20 C         139.4202  141.1661  165.8358 C.3     1  UNL1        0.0722
     21 C         140.2333  142.4251  165.7767 C.3     1  UNL1        0.0410
     22 C         140.3762  143.1654  164.4798 C.3     1  UNL1        0.0939
     23 C         140.1345  144.8675  159.3521 C.ar    1  UNL1        0.1683
     24 C         140.8406  145.3620  160.5797 C.ar    1  UNL1        0.1299
     25 N         140.6977  144.6217  161.8764 N.ar    1  UNL1       -0.2253
     26 C         139.8488  143.3870  161.9455 C.ar    1  UNL1        0.1511
     27 C         139.1427  142.8925  160.7180 C.ar    1  UNL1        0.1338
     28 N         139.2855  143.6328  159.4212 N.ar    1  UNL1       -0.2290
     29 N         140.4202  146.3481  156.7586 N.1     1  UNL1       -0.1892
     30 C         140.2774  145.6078  158.0554 C.1     1  UNL1        0.1214
@<TRIPOS>BOND
     1    29    30    3
     2    30    23    1
     3    23    24   ar
     4    24    25   ar
     5    25    26   ar
     6    26    17    1
     7    17    18    1
     8    18    19    1
     9    19    20    1
    10    20     1    1
    11     1     3    1
    12     3     4    2
    13     4    12    1
    14    12    13   am
    15    12    14    2
    16     4     5    1
    17     5     6    2
    18     6     7    1
    19     7     8    2
    20     8     9    1
    21     9    10    2
    22    10    11    1
    23    20    21    1
    24    21    22    1
    25    26    27   ar
    26    27    28   ar
    27    28    23   ar
    28    22    17    1
    29    11     3    1
    30    11     7    1
    31     1     2    1
    32    13    15    1
    33    13    16    1
@<TRIPOS>MOLECULE
*****
 30 33 0 0 0
SMALL
GASTEIGER

@<TRIPOS>ATOM
      1 N         141.7743  141.9062  167.4810 N.pl3   1  UNL1       -0.3362
      2 H         142.6625  141.9625  167.9019 H       1  UNL1        0.1465
      3 C         140.6450  141.2296  168.2002 C.2     1  UNL1        0.0457
      4 C         140.3585  141.5683  169.6331 C.2     1  UNL1        0.1096
      5 C         139.2292  140.8917  170.3523 C.2     1  UNL1        0.2410
      6 N         138.3866  139.8765  169.6385 N.2     1  UNL1       -0.0338
      7 C         138.6732  139.5379  168.2056 C.2     1  UNL1        0.3606
      8 N         138.0189  138.5855  167.2491 N.2     1  UNL1       -0.0343
      9 C         138.7438  138.6734  165.9388 C.2     1  UNL1        0.2321
     10 C         139.8460  139.6802  166.0855 C.2     1  UNL1        0.0421
     11 C         139.8024  140.2145  167.4865 C.3     1  UNL1        0.1732
     12 C         141.2011  142.5834  170.3468 C.2     1  UNL1        0.2474
     13 N         142.1447  142.1479  171.4285 N.am    1  UNL1       -0.3252
     14 O         141.1002  144.0340  169.9789 O.2     1  UNL1       -0.2702
     15 H         142.2110  141.1958  171.6700 H       1  UNL1        0.1453
     16 H         142.6978  142.8142  171.8969 H       1  UNL1        0.1453
     17 N         141.1021  143.6783  163.3996 N.pl3   1  UNL1       -0.2919
     18 C         142.3393  142.8759  163.6744 C.3     1  UNL1        0.0939
     19 C         142.5634  142.2852  165.0349 C.3     1  UNL1        0.0410
     20 C         141.5502  142.4969  166.1205 C.3     1  UNL1        0.0722
     21 C         140.3130  143.2993  165.8458 C.3     1  UNL1        0.0410
     22 C         140.0890  143.8900  164.4853 C.3     1  UNL1        0.0939
     23 C         140.4301  145.4504  159.3182 C.ar    1  UNL1        0.1683
     24 C         141.4842  144.4017  159.5163 C.ar    1  UNL1        0.1299
     25 N         141.7082  143.8111  160.8768 N.ar    1  UNL1       -0.2253
     26 C         140.8780  144.2690  162.0391 C.ar    1  UNL1        0.1511
     27 C         139.8239  145.3176  161.8411 C.ar    1  UNL1        0.1338
     28 N         139.5999  145.9083  160.4806 N.ar    1  UNL1       -0.2290
     29 N         139.9822  146.6317  156.5972 N.1     1  UNL1       -0.1892
     30 C         140.2061  146.0410  157.9577 C.1     1  UNL1        0.1214
@<TRIPOS>BOND
     1    29    30    3
     2    30    23    1
     3    23    24   ar
     4    24    25   ar
     5    25    26   ar
     6    26    17    1
     7    17    18    1
     8    18    19    1
     9    19    20    1
    10    20     1    1
    11     1     3    1
    12     3     4    2
    13     4    12    1
    14    12    13   am
    15    12    14    2
    16     4     5    1
    17     5     6    2
    18     6     7    1
    19     7     8    2
    20     8     9    1
    21     9    10    2
    22    10    11    1
    23    20    21    1
    24    21    22    1
    25    26    27   ar
    26    27    28   ar
    27    28    23   ar
    28    22    17    1
    29    11     3    1
    30    11     7    1
    31     1     2    1
    32    13    15    1
    33    13    16    1
@<TRIPOS>MOLECULE
*****
 30 33 0 0 0
SMALL
GASTEIGER

@<TRIPOS>ATOM
      1 N         141.4493  139.4306  168.6414 N.pl3   1  UNL1       -0.3362
      2 H         141.3957  138.5494  169.0772 H       1  UNL1        0.1465
      3 C         141.1457  140.6740  169.4237 C.2     1  UNL1        0.0457
      4 C         139.7435  140.9492  169.8800 C.2     1  UNL1        0.1096
      5 C         139.4400  142.1926  170.6623 C.2     1  UNL1        0.2410
      6 N         140.5385  143.1606  170.9883 N.2     1  UNL1       -0.0338
      7 C         141.9406  142.8852  170.5320 C.2     1  UNL1        0.3606
      8 N         143.2199  143.6497  170.7022 N.2     1  UNL1       -0.0343
      9 C         144.3142  142.8789  170.0251 C.2     1  UNL1        0.2321
     10 C         143.7112  141.6380  169.4365 C.2     1  UNL1        0.0421
     11 C         142.2442  141.6419  169.7497 C.3     1  UNL1        0.1732
     12 C         138.6451  139.9813  169.5540 C.2     1  UNL1        0.2474
     13 N         137.6246  139.6266  170.5947 N.am    1  UNL1       -0.3252
     14 O         138.5669  139.3681  168.1873 O.2     1  UNL1       -0.2702
     15 H         137.6759  140.0290  171.4917 H       1  UNL1        0.1453
     16 H         136.9036  138.9913  170.3807 H       1  UNL1        0.1453
     17 N         142.6052  139.7283  164.3026 N.pl3   1  UNL1       -0.2919
     18 C         143.4797  138.9765  165.2619 C.3     1  UNL1        0.0939
     19 C         143.0944  138.8773  166.7082 C.3     1  UNL1        0.0410
     20 C         141.8346  139.5298  167.1951 C.3     1  UNL1        0.0722
     21 C         140.9601  140.2816  166.2359 C.3     1  UNL1        0.0410
     22 C         141.3455  140.3808  164.7896 C.3     1  UNL1        0.0939
     23 C         143.7612  140.0260  159.9639 C.ar    1  UNL1        0.1683
     24 C         143.0043  141.1444  160.6168 C.ar    1  UNL1        0.1299
     25 N         142.6190  141.0451  162.0630 N.ar    1  UNL1       -0.2253
     26 C         142.9905  139.8275  162.8563 C.ar    1  UNL1        0.1511
     27 C         143.7474  138.7091  162.2034 C.ar    1  UNL1        0.1338
     28 N         144.1327  138.8083  160.7571 N.ar    1  UNL1       -0.2290
     29 N         144.5318  140.2245  157.0713 N.1     1  UNL1       -0.1892
     30 C         144.1465  140.1252  158.5176 C.1     1  UNL1        0.1214
@<TRIPOS>BOND
     1    29    30    3
     2    30    23    1
     3    23    24   ar
     4    24    25   ar
     5    25    26   ar
     6    26    17    1
     7    17    18    1
     8    18    19    1
     9    19    20    1
    10    20     1    1
    11     1     3    1
    12     3     4    2
    13     4    12    1
    14    12    13   am
    15    12    14    2
    16     4     5    1
    17     5     6    2
    18     6     7    1
    19     7     8    2
    20     8     9    1
    21     9    10    2
    22    10    11    1
    23    20    21    1
    24    21    22    1
    25    26    27   ar
    26    27    28   ar
    27    28    23   ar
    28    22    17    1
    29    11     3    1
    30    11     7    1
    31     1     2    1
    32    13    15    1
    33    13    16    1
@<TRIPOS>MOLECULE
*****
 30 33 0 0 0
SMALL
GASTEIGER

@<TRIPOS>ATOM
      1 N         142.3737  140.6822  166.3117 N.pl3   1  UNL1       -0.3362
      2 H         143.1761  140.1132  166.3518 H       1  UNL1        0.1465
      3 C         141.4616  140.7773  167.4989 C.2     1  UNL1        0.0457
      4 C         140.1321  140.0831  167.4806 C.2     1  UNL1        0.1096
      5 C         139.2200  140.1783  168.6677 C.2     1  UNL1        0.2410
      6 N         139.6376  140.9676  169.8730 N.2     1  UNL1       -0.0338
      7 C         140.9672  141.6618  169.8911 C.2     1  UNL1        0.3606
      8 N         141.6447  142.5058  170.9297 N.2     1  UNL1       -0.0343
      9 C         142.9754  142.9322  170.3846 C.2     1  UNL1        0.2321
     10 C         143.1204  142.3518  169.0090 C.2     1  UNL1        0.0421
     11 C         141.8792  141.5666  168.7040 C.3     1  UNL1        0.1732
     12 C         139.7145  139.2939  166.2754 C.2     1  UNL1        0.2474
     13 N         138.3156  139.4144  165.7476 N.am    1  UNL1       -0.3252
     14 O         140.6958  138.3839  165.5979 O.2     1  UNL1       -0.2702
     15 H         137.6715  140.0117  166.1922 H       1  UNL1        0.1453
     16 H         138.0415  138.8964  164.9566 H       1  UNL1        0.1453
     17 N         141.4420  142.9974  162.5672 N.pl3   1  UNL1       -0.2919
     18 C         142.0700  141.6385  162.4721 C.3     1  UNL1        0.0939
     19 C         142.3806  140.8667  163.7202 C.3     1  UNL1        0.0410
     20 C         142.0631  141.4539  165.0635 C.3     1  UNL1        0.0722
     21 C         141.4351  142.8128  165.1587 C.3     1  UNL1        0.0410
     22 C         141.1245  143.5845  163.9104 C.3     1  UNL1        0.0939
     23 C         140.5103  145.3124  158.8226 C.ar    1  UNL1        0.1683
     24 C         141.4925  144.1795  158.7791 C.ar    1  UNL1        0.1299
     25 N         141.8031  143.4079  160.0273 N.ar    1  UNL1       -0.2253
     26 C         141.1314  143.7691  161.3189 C.ar    1  UNL1        0.1511
     27 C         140.1493  144.9020  161.3625 C.ar    1  UNL1        0.1338
     28 N         139.8387  145.6737  160.1142 N.ar    1  UNL1       -0.2290
     29 N         139.8893  146.8558  156.3261 N.1     1  UNL1       -0.1892
     30 C         140.1998  146.0841  157.5743 C.1     1  UNL1        0.1214
@<TRIPOS>BOND
     1    29    30    3
     2    30    23    1
     3    23    24   ar
     4    24    25   ar
     5    25    26   ar
     6    26    17    1
     7    17    18    1
     8    18    19    1
     9    19    20    1
    10    20     1    1
    11     1     3    1
    12     3     4    2
    13     4    12    1
    14    12    13   am
    15    12    14    2
    16     4     5    1
    17     5     6    2
    18     6     7    1
    19     7     8    2
    20     8     9    1
    21     9    10    2
    22    10    11    1
    23    20    21    1
    24    21    22    1
    25    26    27   ar
    26    27    28   ar
    27    28    23   ar
    28    22    17    1
    29    11     3    1
    30    11     7    1
    31     1     2    1
    32    13    15    1
    33    13    16    1
@<TRIPOS>MOLECULE
*****
 30 33 0 0 0
SMALL
GASTEIGER

@<TRIPOS>ATOM
      1 N         140.8518  137.8825  162.7592 N.pl3   1  UNL1       -0.3362
      2 H         140.6542  136.9206  162.6892 H       1  UNL1        0.1465
      3 C         140.3319  138.6722  163.9238 C.2     1  UNL1        0.0457
      4 C         138.9577  139.2712  163.8700 C.2     1  UNL1        0.1096
      5 C         138.4378  140.0609  165.0346 C.2     1  UNL1        0.2410
      6 N         139.2921  140.2516  166.2528 N.2     1  UNL1       -0.0338
      7 C         140.6662  139.6526  166.3064 C.2     1  UNL1        0.3606
      8 N         141.7292  139.6724  167.3646 N.2     1  UNL1       -0.0343
      9 C         142.9060  138.8950  166.8541 C.2     1  UNL1        0.2321
     10 C         142.5704  138.3947  165.4804 C.2     1  UNL1        0.0421
     11 C         141.1861  138.8629  165.1419 C.3     1  UNL1        0.1732
     12 C         138.1035  139.0805  162.6520 C.2     1  UNL1        0.2474
     13 N         137.3386  140.2389  162.0834 N.am    1  UNL1       -0.3252
     14 O         138.0141  137.7315  162.0023 O.2     1  UNL1       -0.2702
     15 H         137.3972  141.1243  162.5098 H       1  UNL1        0.1453
     16 H         136.7779  140.1137  161.2839 H       1  UNL1        0.1453
     17 N         143.3147  139.9102  159.5856 N.pl3   1  UNL1       -0.2919
     18 C         143.9559  139.4795  160.8715 C.3     1  UNL1        0.0939
     19 C         143.1350  138.8036  161.9294 C.3     1  UNL1        0.0410
     20 C         141.6728  138.5584  161.7013 C.3     1  UNL1        0.0722
     21 C         141.0316  138.9891  160.4155 C.3     1  UNL1        0.0410
     22 C         141.8527  139.6650  159.3576 C.3     1  UNL1        0.0939
     23 C         145.7778  141.9379  156.4120 C.ar    1  UNL1        0.1683
     24 C         145.3159  140.5246  156.2140 C.ar    1  UNL1        0.1299
     25 N         144.4949  139.8487  157.2718 N.ar    1  UNL1       -0.2253
     26 C         144.1358  140.5862  158.5277 C.ar    1  UNL1        0.1511
     27 C         144.5976  141.9994  158.7257 C.ar    1  UNL1        0.1338
     28 N         145.4187  142.6754  157.6679 N.ar    1  UNL1       -0.2290
     29 N         147.4199  143.2896  154.2963 N.1     1  UNL1       -0.1892
     30 C         146.5989  142.6138  155.3541 C.1     1  UNL1        0.1214
@<TRIPOS>BOND
     1    29    30    3
     2    30    23    1
     3    23    24   ar
     4    24    25   ar
     5    25    26   ar
     6    26    17    1
     7    17    18    1
     8    18    19    1
     9    19    20    1
    10    20     1    1
    11     1     3    1
    12     3     4    2
    13     4    12    1
    14    12    13   am
    15    12    14    2
    16     4     5    1
    17     5     6    2
    18     6     7    1
    19     7     8    2
    20     8     9    1
    21     9    10    2
    22    10    11    1
    23    20    21    1
    24    21    22    1
    25    26    27   ar
    26    27    28   ar
    27    28    23   ar
    28    22    17    1
    29    11     3    1
    30    11     7    1
    31     1     2    1
    32    13    15    1
    33    13    16    1
@<TRIPOS>MOLECULE
*****
 30 33 0 0 0
SMALL
GASTEIGER

@<TRIPOS>ATOM
      1 N         137.5741  139.9026  163.9054 N.pl3   1  UNL1       -0.3362
      2 H         136.6224  139.7250  164.0842 H       1  UNL1        0.1465
      3 C         138.4453  140.4771  164.9830 C.2     1  UNL1        0.0457
      4 C         138.7354  139.6777  166.2186 C.2     1  UNL1        0.1096
      5 C         139.6065  140.2523  167.2962 C.2     1  UNL1        0.2410
      6 N         140.1875  141.6261  167.1381 N.2     1  UNL1       -0.0338
      7 C         139.8974  142.4254  165.9024 C.2     1  UNL1        0.3606
      8 N         140.3262  143.7963  165.4700 N.2     1  UNL1       -0.0343
      9 C         139.7202  144.0690  164.1253 C.2     1  UNL1        0.2321
     10 C         138.9168  142.8667  163.7265 C.2     1  UNL1        0.0421
     11 C         139.0262  141.8509  164.8249 C.3     1  UNL1        0.1732
     12 C         138.1544  138.3039  166.3768 C.2     1  UNL1        0.2474
     13 N         137.2066  138.0155  167.5031 N.am    1  UNL1       -0.3252
     14 O         138.5212  137.2185  165.4087 O.2     1  UNL1       -0.2702
     15 H         136.9658  138.7279  168.1385 H       1  UNL1        0.1453
     16 H         136.8253  137.1138  167.6068 H       1  UNL1        0.1453
     17 N         139.3109  138.9905  159.8556 N.pl3   1  UNL1       -0.2919
     18 C         139.9023  138.3641  161.0836 C.3     1  UNL1        0.0939
     19 C         139.3234  138.6682  162.4336 C.3     1  UNL1        0.0410
     20 C         138.1531  139.5985  162.5555 C.3     1  UNL1        0.0722
     21 C         137.5617  140.2248  161.3275 C.3     1  UNL1        0.0410
     22 C         138.1407  139.9207  159.9775 C.3     1  UNL1        0.0939
     23 C         141.0478  138.0783  155.8057 C.ar    1  UNL1        0.1683
     24 C         139.6210  138.5252  155.9265 C.ar    1  UNL1        0.1299
     25 N         139.0421  138.8292  157.2765 N.ar    1  UNL1       -0.2253
     26 C         139.8899  138.6864  158.5056 C.ar    1  UNL1        0.1511
     27 C         141.3166  138.2395  158.3848 C.ar    1  UNL1        0.1338
     28 N         141.8956  137.9354  157.0348 N.ar    1  UNL1       -0.2290
     29 N         142.2056  137.4702  153.1058 N.1     1  UNL1       -0.1892
     30 C         141.6267  137.7742  154.4558 C.1     1  UNL1        0.1214
@<TRIPOS>BOND
     1    29    30    3
     2    30    23    1
     3    23    24   ar
     4    24    25   ar
     5    25    26   ar
     6    26    17    1
     7    17    18    1
     8    18    19    1
     9    19    20    1
    10    20     1    1
    11     1     3    1
    12     3     4    2
    13     4    12    1
    14    12    13   am
    15    12    14    2
    16     4     5    1
    17     5     6    2
    18     6     7    1
    19     7     8    2
    20     8     9    1
    21     9    10    2
    22    10    11    1
    23    20    21    1
    24    21    22    1
    25    26    27   ar
    26    27    28   ar
    27    28    23   ar
    28    22    17    1
    29    11     3    1
    30    11     7    1
    31     1     2    1
    32    13    15    1
    33    13    16    1
@<TRIPOS>MOLECULE
*****
 30 33 0 0 0
SMALL
GASTEIGER

@<TRIPOS>ATOM
      1 N         141.6783  139.6248  164.4070 N.pl3   1  UNL1       -0.3362
      2 H         142.5604  139.2167  164.5637 H       1  UNL1        0.1465
      3 C         140.5284  139.2962  165.3127 C.2     1  UNL1        0.0457
      4 C         139.5046  138.2854  164.8882 C.2     1  UNL1        0.1096
      5 C         138.3548  137.9569  165.7938 C.2     1  UNL1        0.2410
      6 N         138.2289  138.6391  167.1238 N.2     1  UNL1       -0.0338
      7 C         139.2528  139.6498  167.5481 C.2     1  UNL1        0.3606
      8 N         139.3905  140.4778  168.7913 N.2     1  UNL1       -0.0343
      9 C         140.6254  141.3181  168.6540 C.2     1  UNL1        0.2321
     10 C         141.2509  141.0095  167.3261 C.2     1  UNL1        0.0421
     11 C         140.4025  139.9783  166.6426 C.3     1  UNL1        0.1732
     12 C         139.6306  137.6033  163.5583 C.2     1  UNL1        0.2474
     13 N         138.4893  137.6400  162.5855 N.am    1  UNL1       -0.3252
     14 O         140.8977  136.8844  163.2011 O.2     1  UNL1       -0.2702
     15 H         137.6576  138.1118  162.8199 H       1  UNL1        0.1453
     16 H         138.5720  137.1922  161.7126 H       1  UNL1        0.1453
     17 N         141.0954  142.4757  160.9745 N.pl3   1  UNL1       -0.2919
     18 C         141.4141  141.0345  160.7067 C.3     1  UNL1        0.0939
     19 C         141.6084  140.0842  161.8509 C.3     1  UNL1        0.0410
     20 C         141.4840  140.5751  163.2629 C.3     1  UNL1        0.0722
     21 C         141.1654  142.0162  163.5307 C.3     1  UNL1        0.0410
     22 C         140.9711  142.9665  162.3864 C.3     1  UNL1        0.0939
     23 C         140.5127  145.3265  157.5419 C.ar    1  UNL1        0.1683
     24 C         141.5895  145.5820  158.5545 C.ar    1  UNL1        0.1299
     25 N         141.7837  144.6317  159.6987 N.ar    1  UNL1       -0.2253
     26 C         140.9012  143.4260  159.8302 C.ar    1  UNL1        0.1511
     27 C         139.8244  143.1705  158.8177 C.ar    1  UNL1        0.1338
     28 N         139.6301  144.1208  157.6735 N.ar    1  UNL1       -0.2290
     29 N         140.1242  147.2271  155.2535 N.1     1  UNL1       -0.1892
     30 C         140.3185  146.2768  156.3977 C.1     1  UNL1        0.1214
@<TRIPOS>BOND
     1    29    30    3
     2    30    23    1
     3    23    24   ar
     4    24    25   ar
     5    25    26   ar
     6    26    17    1
     7    17    18    1
     8    18    19    1
     9    19    20    1
    10    20     1    1
    11     1     3    1
    12     3     4    2
    13     4    12    1
    14    12    13   am
    15    12    14    2
    16     4     5    1
    17     5     6    2
    18     6     7    1
    19     7     8    2
    20     8     9    1
    21     9    10    2
    22    10    11    1
    23    20    21    1
    24    21    22    1
    25    26    27   ar
    26    27    28   ar
    27    28    23   ar
    28    22    17    1
    29    11     3    1
    30    11     7    1
    31     1     2    1
    32    13    15    1
    33    13    16    1
@<TRIPOS>MOLECULE
*****
 30 33 0 0 0
SMALL
GASTEIGER

@<TRIPOS>ATOM
      1 N         142.8231  139.8713  167.5636 N.pl3   1  UNL1       -0.3362
      2 H         143.5901  139.7563  168.1701 H       1  UNL1        0.1465
      3 C         141.4276  139.8853  168.1137 C.2     1  UNL1        0.0457
      4 C         141.1898  140.2617  169.5461 C.2     1  UNL1        0.1096
      5 C         139.7943  140.2757  170.0961 C.2     1  UNL1        0.2410
      6 N         138.6367  139.9132  169.2136 N.2     1  UNL1       -0.0338
      7 C         138.8746  139.5368  167.7813 C.2     1  UNL1        0.3606
      8 N         137.9383  139.1354  166.6802 N.2     1  UNL1       -0.0343
      9 C         138.7552  138.8734  165.4497 C.2     1  UNL1        0.2321
     10 C         140.1962  139.1128  165.7903 C.2     1  UNL1        0.0421
     11 C         140.2700  139.5229  167.2313 C.3     1  UNL1        0.1732
     12 C         142.3473  140.6241  170.4284 C.2     1  UNL1        0.2474
     13 N         142.3628  141.9440  171.1410 N.am    1  UNL1       -0.3252
     14 O         143.4895  139.6668  170.5982 O.2     1  UNL1       -0.2702
     15 H         141.6132  142.5724  171.0296 H       1  UNL1        0.1453
     16 H         143.1226  142.1819  171.7202 H       1  UNL1        0.1453
     17 N         143.5038  140.3551  163.1418 N.pl3   1  UNL1       -0.2919
     18 C         143.7485  139.0284  163.7976 C.3     1  UNL1        0.0939
     19 C         143.5216  138.8671  165.2716 C.3     1  UNL1        0.0410
     20 C         143.0500  140.0326  166.0897 C.3     1  UNL1        0.0722
     21 C         142.8053  141.3593  165.4340 C.3     1  UNL1        0.0410
     22 C         143.0323  141.5205  163.9600 C.3     1  UNL1        0.0939
     23 C         144.1845  140.8388  158.7200 C.ar    1  UNL1        0.1683
     24 C         144.1582  142.0452  159.6112 C.ar    1  UNL1        0.1299
     25 N         143.9313  141.8839  161.0851 N.ar    1  UNL1       -0.2253
     26 C         143.7307  140.5164  161.6678 C.ar    1  UNL1        0.1511
     27 C         143.7570  139.3101  160.7768 C.ar    1  UNL1        0.1338
     28 N         143.9839  139.4713  159.3027 N.ar    1  UNL1       -0.2290
     29 N         144.6383  141.1614  155.7722 N.1     1  UNL1       -0.1892
     30 C         144.4114  141.0001  157.2461 C.1     1  UNL1        0.1214
@<TRIPOS>BOND
     1    29    30    3
     2    30    23    1
     3    23    24   ar
     4    24    25   ar
     5    25    26   ar
     6    26    17    1
     7    17    18    1
     8    18    19    1
     9    19    20    1
    10    20     1    1
    11     1     3    1
    12     3     4    2
    13     4    12    1
    14    12    13   am
    15    12    14    2
    16     4     5    1
    17     5     6    2
    18     6     7    1
    19     7     8    2
    20     8     9    1
    21     9    10    2
    22    10    11    1
    23    20    21    1
    24    21    22    1
    25    26    27   ar
    26    27    28   ar
    27    28    23   ar
    28    22    17    1
    29    11     3    1
    30    11     7    1
    31     1     2    1
    32    13    15    1
    33    13    16    1
@<TRIPOS>MOLECULE
*****
 30 33 0 0 0
SMALL
GASTEIGER

@<TRIPOS>ATOM
      1 N         137.6240  141.4525  162.8687 N.pl3   1  UNL1       -0.3362
      2 H         136.6587  141.6461  162.8653 H       1  UNL1        0.1465
      3 C         138.4797  141.9247  164.0067 C.2     1  UNL1        0.0457
      4 C         139.0983  143.2905  163.9633 C.2     1  UNL1        0.1096
      5 C         139.9539  143.7627  165.1013 C.2     1  UNL1        0.2410
      6 N         140.1909  142.8691  166.2825 N.2     1  UNL1       -0.0338
      7 C         139.5723  141.5033  166.3258 C.2     1  UNL1        0.3606
      8 N         139.6271  140.4086  167.3498 N.2     1  UNL1       -0.0343
      9 C         138.8054  139.2598  166.8448 C.2     1  UNL1        0.2321
     10 C         138.2427  139.6446  165.5086 C.2     1  UNL1        0.0421
     11 C         138.7166  141.0311  165.1878 C.3     1  UNL1        0.1732
     12 C         138.8613  144.1841  162.7821 C.2     1  UNL1        0.2474
     13 N         137.4985  144.7628  162.5408 N.am    1  UNL1       -0.3252
     14 O         139.9870  144.4990  161.8421 O.2     1  UNL1       -0.2702
     15 H         136.7597  144.5561  163.1578 H       1  UNL1        0.1453
     16 H         137.3430  145.3493  161.7656 H       1  UNL1        0.1453
     17 N         139.4692  139.1511  159.4704 N.pl3   1  UNL1       -0.2919
     18 C         138.9584  138.4237  160.6788 C.3     1  UNL1        0.0939
     19 C         138.3434  139.1909  161.8116 C.3     1  UNL1        0.0410
     20 C         138.2390  140.6854  161.7359 C.3     1  UNL1        0.0722
     21 C         138.7498  141.4127  160.5275 C.3     1  UNL1        0.0410
     22 C         139.3648  140.6454  159.3947 C.3     1  UNL1        0.0939
     23 C         141.3143  136.8495  156.0721 C.ar    1  UNL1        0.1683
     24 C         139.8412  137.1325  156.0737 C.ar    1  UNL1        0.1299
     25 N         139.2262  137.8997  157.2065 N.ar    1  UNL1       -0.2253
     26 C         140.0843  138.3838  158.3376 C.ar    1  UNL1        0.1511
     27 C         141.5573  138.1008  158.3360 C.ar    1  UNL1        0.1338
     28 N         142.1723  137.3336  157.2032 N.ar    1  UNL1       -0.2290
     29 N         142.5443  135.3150  153.8066 N.1     1  UNL1       -0.1892
     30 C         141.9293  136.0823  154.9394 C.1     1  UNL1        0.1214
@<TRIPOS>BOND
     1    29    30    3
     2    30    23    1
     3    23    24   ar
     4    24    25   ar
     5    25    26   ar
     6    26    17    1
     7    17    18    1
     8    18    19    1
     9    19    20    1
    10    20     1    1
    11     1     3    1
    12     3     4    2
    13     4    12    1
    14    12    13   am
    15    12    14    2
    16     4     5    1
    17     5     6    2
    18     6     7    1
    19     7     8    2
    20     8     9    1
    21     9    10    2
    22    10    11    1
    23    20    21    1
    24    21    22    1
    25    26    27   ar
    26    27    28   ar
    27    28    23   ar
    28    22    17    1
    29    11     3    1
    30    11     7    1
    31     1     2    1
    32    13    15    1
    33    13    16    1
