@<TRIPOS>MOLECULE
*****
 37 39 0 0 0
SMALL
GASTEIGER

@<TRIPOS>ATOM
      1 C         139.1268  140.4134  162.9208 C.3     1  UNL1        0.1017
      2 C         140.0654  139.4513  162.2549 C.3     1  UNL1        0.0394
      3 C         140.1275  139.3786  160.7579 C.3     1  UNL1        0.0739
      4 N         139.2510  140.2680  159.9269 N.3     1  UNL1       -0.2705
      5 C         138.3123  141.2301  160.5927 C.3     1  UNL1        0.1037
      6 C         138.2502  141.3028  162.0896 C.3     1  UNL1        0.1490
      7 C         140.1086  141.2516  165.1754 C.2     1  UNL1        0.2488
      8 O         141.2147  141.9444  164.4362 O.2     1  UNL1       -0.2700
      9 N         139.0646  140.4861  164.4177 N.am    1  UNL1       -0.2999
     10 H         138.3386  140.0314  164.9029 H       1  UNL1        0.1498
     11 C         139.5167  140.1617  167.4584 C.ar    1  UNL1        0.1443
     12 C         139.4545  140.2344  168.9553 C.ar    1  UNL1        0.0520
     13 C         139.9221  141.4697  169.6662 C.ar    1  UNL1        0.0553
     14 N         139.8599  141.5424  171.1632 N.pl3   1  UNL1       -0.3563
     15 C         140.4518  142.6323  168.8803 C.ar    1  UNL1        0.0709
     16 CL        140.9193  143.8676  169.5912 Cl      1  UNL1       -0.0810
     17 C         140.5139  142.5596  167.3834 C.ar    1  UNL1        0.0202
     18 C         140.0464  141.3243  166.6724 C.ar    1  UNL1        0.0882
     19 H         139.5122  140.7794  171.6791 H       1  UNL1        0.1424
     20 H         140.1668  142.3532  171.6299 H       1  UNL1        0.1424
     21 C         137.6486  138.4291  166.9502 C.3     1  UNL1        0.2525
     22 O         139.0491  138.9264  166.7474 O.3     1  UNL1       -0.4712
     23 O         137.3115  142.2648  162.7555 O.3     1  UNL1       -0.3505
     24 C         137.7517  143.6716  163.0330 C.3     1  UNL1        0.1741
     25 C         139.3131  140.1953  158.4300 C.3     1  UNL1        0.0722
     26 C         140.3437  139.3332  157.7631 C.3     1  UNL1        0.0194
     27 C         139.9907  137.9410  157.3305 C.3     1  UNL1        0.0229
     28 C         141.0212  137.0788  156.6636 C.3     1  UNL1        0.0934
     29 N         142.4047  137.6089  156.4293 N.am    1  UNL1       -0.2796
     30 C         143.4352  136.7468  155.7624 C.2     1  UNL1        0.2247
     31 O         144.8188  137.2769  155.5281 O.2     1  UNL1       -0.2749
     32 C         142.7578  139.0012  156.8619 C.3     1  UNL1        0.0934
     33 C         141.7272  139.8633  157.5288 C.3     1  UNL1        0.0229
     34 C         143.0823  135.3546  155.3298 C.3     1  UNL1        0.0691
     35 C         142.5448  135.8926  154.0369 C.3     1  UNL1        0.0091
     36 C         143.6198  134.8166  156.6227 C.3     1  UNL1        0.0091
     37 C         142.7293  133.9624  154.8972 C.3     1  UNL1        0.0091
@<TRIPOS>BOND
     1    21    22    1
     2    22    11    1
     3    11    12   ar
     4    12    13   ar
     5    13    14    1
     6    13    15   ar
     7    15    16    1
     8    15    17   ar
     9    17    18   ar
    10    18     7    1
    11     7     8    2
    12     7     9   am
    13     1     9    1
    14     1     2    1
    15     2     3    1
    16     3     4    1
    17     4    25    1
    18    25    26    1
    19    26    27    1
    20    27    28    1
    21    28    29    1
    22    29    30   am
    23    30    31    2
    24    30    34    1
    25    34    35    1
    26    34    36    1
    27    34    37    1
    28    29    32    1
    29    32    33    1
    30     4     5    1
    31     5     6    1
    32     6    23    1
    33    23    24    1
    34    18    11   ar
    35     6     1    1
    36    33    26    1
    37    14    19    1
    38    14    20    1
    39     9    10    1
@<TRIPOS>MOLECULE
*****
 37 39 0 0 0
SMALL
GASTEIGER

@<TRIPOS>ATOM
      1 C         138.0699  140.0900  160.5259 C.3     1  UNL1        0.1017
      2 C         138.7059  138.7371  160.4025 C.3     1  UNL1        0.0394
      3 C         139.1605  138.0071  161.6316 C.3     1  UNL1        0.0739
      4 N         138.9791  138.6300  162.9840 N.3     1  UNL1       -0.2705
      5 C         138.3430  139.9829  163.1074 C.3     1  UNL1        0.1037
      6 C         137.8885  140.7129  161.8784 C.3     1  UNL1        0.1490
      7 C         138.5928  141.6371  158.5053 C.2     1  UNL1        0.2488
      8 O         140.0250  141.7243  158.9427 O.2     1  UNL1       -0.2700
      9 N         137.6153  140.8199  159.2969 N.am    1  UNL1       -0.2999
     10 H         136.6753  140.7627  159.0099 H       1  UNL1        0.1498
     11 C         136.9471  141.8746  156.5090 C.ar    1  UNL1        0.1443
     12 C         136.4925  142.6046  155.2801 C.ar    1  UNL1        0.0520
     13 C         137.2290  143.8270  154.8183 C.ar    1  UNL1        0.0553
     14 N         136.7743  144.5570  153.5893 N.pl3   1  UNL1       -0.3563
     15 C         138.4201  144.3195  155.5856 C.ar    1  UNL1        0.0709
     16 CL        139.1566  145.5419  155.1238 Cl      1  UNL1       -0.0810
     17 C         138.8747  143.5895  156.8145 C.ar    1  UNL1        0.0202
     18 C         138.1382  142.3671  157.2763 C.ar    1  UNL1        0.0882
     19 H         135.9925  144.2338  153.0857 H       1  UNL1        0.1424
     20 H         137.2577  145.3593  153.2862 H       1  UNL1        0.1424
     21 C         134.8476  140.3465  156.4241 C.3     1  UNL1        0.2525
     22 O         136.2106  140.6522  156.9708 O.3     1  UNL1       -0.4712
     23 O         137.2524  142.0657  162.0018 O.3     1  UNL1       -0.3505
     24 C         138.0948  143.2637  162.3261 C.3     1  UNL1        0.1741
     25 C         139.4337  137.9001  164.2130 C.3     1  UNL1        0.0722
     26 C         139.4686  138.6071  165.5354 C.3     1  UNL1        0.0194
     27 C         140.7061  139.3399  165.9616 C.3     1  UNL1        0.0229
     28 C         140.7410  140.0470  167.2840 C.3     1  UNL1        0.0934
     29 N         139.5385  140.0213  168.1803 N.am    1  UNL1       -0.2796
     30 C         139.5735  140.7284  169.5027 C.2     1  UNL1        0.2247
     31 O         138.3709  140.7026  170.3989 O.2     1  UNL1       -0.2749
     32 C         138.3010  139.2885  167.7541 C.3     1  UNL1        0.0934
     33 C         138.2660  138.5814  166.4316 C.3     1  UNL1        0.0229
     34 C         140.8109  141.4611  169.9289 C.3     1  UNL1        0.0691
     35 C         140.2766  142.7209  169.3145 C.3     1  UNL1        0.0091
     36 C         141.3453  140.2014  170.5433 C.3     1  UNL1        0.0091
     37 C         142.0484  142.1939  170.3551 C.3     1  UNL1        0.0091
@<TRIPOS>BOND
     1    21    22    1
     2    22    11    1
     3    11    12   ar
     4    12    13   ar
     5    13    14    1
     6    13    15   ar
     7    15    16    1
     8    15    17   ar
     9    17    18   ar
    10    18     7    1
    11     7     8    2
    12     7     9   am
    13     1     9    1
    14     1     2    1
    15     2     3    1
    16     3     4    1
    17     4    25    1
    18    25    26    1
    19    26    27    1
    20    27    28    1
    21    28    29    1
    22    29    30   am
    23    30    31    2
    24    30    34    1
    25    34    35    1
    26    34    36    1
    27    34    37    1
    28    29    32    1
    29    32    33    1
    30     4     5    1
    31     5     6    1
    32     6    23    1
    33    23    24    1
    34    18    11   ar
    35     6     1    1
    36    33    26    1
    37    14    19    1
    38    14    20    1
    39     9    10    1
@<TRIPOS>MOLECULE
*****
 37 39 0 0 0
SMALL
GASTEIGER

@<TRIPOS>ATOM
      1 C         138.2439  140.7429  161.1430 C.3     1  UNL1        0.1017
      2 C         138.7708  139.3386  161.1218 C.3     1  UNL1        0.0394
      3 C         138.9046  138.5683  162.4020 C.3     1  UNL1        0.0739
      4 N         138.5116  139.2023  163.7033 N.3     1  UNL1       -0.2705
      5 C         137.9847  140.6066  163.7245 C.3     1  UNL1        0.1037
      6 C         137.8509  141.3769  162.4444 C.3     1  UNL1        0.1490
      7 C         139.2889  142.2565  159.3081 C.2     1  UNL1        0.2488
      8 O         140.6016  142.2296  160.0335 O.2     1  UNL1       -0.2700
      9 N         138.1101  141.5131  159.8629 N.am    1  UNL1       -0.2999
     10 H         137.2486  141.5308  159.3868 H       1  UNL1        0.1498
     11 C         138.2799  142.5054  156.9269 C.ar    1  UNL1        0.1443
     12 C         138.1461  143.2757  155.6468 C.ar    1  UNL1        0.0520
     13 C         138.8874  144.5674  155.4677 C.ar    1  UNL1        0.0553
     14 N         138.7535  145.3376  154.1875 N.pl3   1  UNL1       -0.3563
     15 C         139.7625  145.0887  156.5687 C.ar    1  UNL1        0.0709
     16 CL        140.5039  146.3804  156.3896 Cl      1  UNL1       -0.0810
     17 C         139.8964  144.3184  157.8488 C.ar    1  UNL1        0.0202
     18 C         139.1551  143.0268  158.0279 C.ar    1  UNL1        0.0882
     19 H         138.1791  144.9954  153.4649 H       1  UNL1        0.1424
     20 H         139.2401  146.1854  154.0699 H       1  UNL1        0.1424
     21 C         136.1709  141.0456  156.5136 C.3     1  UNL1        0.2525
     22 O         137.5386  141.2138  157.1060 O.3     1  UNL1       -0.4712
     23 O         137.3240  142.7811  162.4656 O.3     1  UNL1       -0.3505
     24 C         138.0241  143.8327  163.2742 C.3     1  UNL1        0.1741
     25 C         138.6454  138.4321  164.9834 C.3     1  UNL1        0.0722
     26 C         139.2160  139.0954  166.2018 C.3     1  UNL1        0.0194
     27 C         140.6047  139.6614  166.1666 C.3     1  UNL1        0.0229
     28 C         141.1753  140.3248  167.3849 C.3     1  UNL1        0.0934
     29 N         140.3573  140.4222  168.6384 N.am    1  UNL1       -0.2796
     30 C         140.9279  141.0855  169.8567 C.2     1  UNL1        0.2247
     31 O         140.1098  141.1829  171.1103 O.2     1  UNL1       -0.2749
     32 C         138.9686  139.8562  168.6736 C.3     1  UNL1        0.0934
     33 C         138.3979  139.1928  167.4553 C.3     1  UNL1        0.0229
     34 C         142.3166  141.6515  169.8216 C.3     1  UNL1        0.0691
     35 C         142.8680  140.3255  170.2548 C.3     1  UNL1        0.0091
     36 C         141.7652  142.9774  169.3883 C.3     1  UNL1        0.0091
     37 C         143.7052  142.2175  169.7864 C.3     1  UNL1        0.0091
@<TRIPOS>BOND
     1    21    22    1
     2    22    11    1
     3    11    12   ar
     4    12    13   ar
     5    13    14    1
     6    13    15   ar
     7    15    16    1
     8    15    17   ar
     9    17    18   ar
    10    18     7    1
    11     7     8    2
    12     7     9   am
    13     1     9    1
    14     1     2    1
    15     2     3    1
    16     3     4    1
    17     4    25    1
    18    25    26    1
    19    26    27    1
    20    27    28    1
    21    28    29    1
    22    29    30   am
    23    30    31    2
    24    30    34    1
    25    34    35    1
    26    34    36    1
    27    34    37    1
    28    29    32    1
    29    32    33    1
    30     4     5    1
    31     5     6    1
    32     6    23    1
    33    23    24    1
    34    18    11   ar
    35     6     1    1
    36    33    26    1
    37    14    19    1
    38    14    20    1
    39     9    10    1
@<TRIPOS>MOLECULE
*****
 37 39 0 0 0
SMALL
GASTEIGER

@<TRIPOS>ATOM
      1 C         138.5456  139.4589  159.7908 C.3     1  UNL1        0.1017
      2 C         137.5439  139.3074  160.8969 C.3     1  UNL1        0.0394
      3 C         137.9404  138.6433  162.1822 C.3     1  UNL1        0.0739
      4 N         139.3386  138.1307  162.3613 N.3     1  UNL1       -0.2705
      5 C         140.3404  138.2822  161.2551 C.3     1  UNL1        0.1037
      6 C         139.9440  138.9463  159.9700 C.3     1  UNL1        0.1490
      7 C         138.1838  141.6183  158.3922 C.2     1  UNL1        0.2488
      8 O         138.6149  142.4495  159.5640 O.2     1  UNL1       -0.2700
      9 N         138.1492  140.1230  158.5056 N.am    1  UNL1       -0.2999
     10 H         137.8663  139.5774  157.7365 H       1  UNL1        0.1498
     11 C         136.6225  141.7587  156.3204 C.ar    1  UNL1        0.1443
     12 C         136.2260  142.4227  155.0352 C.ar    1  UNL1        0.0520
     13 C         136.9945  143.6105  154.5365 C.ar    1  UNL1        0.0553
     14 N         136.5980  144.2746  153.2512 N.pl3   1  UNL1       -0.3563
     15 C         138.1594  144.1342  155.3231 C.ar    1  UNL1        0.0709
     16 CL        138.9279  145.3220  154.8244 Cl      1  UNL1       -0.0810
     17 C         138.5558  143.4701  156.6083 C.ar    1  UNL1        0.0202
     18 C         137.7873  142.2824  157.1069 C.ar    1  UNL1        0.0882
     19 H         135.8335  143.9308  152.7350 H       1  UNL1        0.1424
     20 H         137.1024  145.0542  152.9239 H       1  UNL1        0.1424
     21 C         134.4809  140.2882  156.2856 C.3     1  UNL1        0.2525
     22 O         135.8540  140.5709  156.8190 O.3     1  UNL1       -0.4712
     23 O         140.9457  139.0977  158.8638 O.3     1  UNL1       -0.3505
     24 C         141.8208  140.3146  158.8059 C.3     1  UNL1        0.1741
     25 C         139.7351  137.4666  163.6465 C.3     1  UNL1        0.0722
     26 C         139.8481  138.2752  164.9048 C.3     1  UNL1        0.0194
     27 C         141.1220  139.0031  165.2167 C.3     1  UNL1        0.0229
     28 C         141.2350  139.8117  166.4751 C.3     1  UNL1        0.0934
     29 N         140.0740  139.8925  167.4214 N.am    1  UNL1       -0.2796
     30 C         140.1870  140.7011  168.6797 C.2     1  UNL1        0.2247
     31 O         139.0260  140.7819  169.6261 O.2     1  UNL1       -0.2749
     32 C         138.8000  139.1646  167.1095 C.3     1  UNL1        0.0934
     33 C         138.6870  138.3560  165.8512 C.3     1  UNL1        0.0229
     34 C         141.4610  141.4289  168.9917 C.3     1  UNL1        0.0691
     35 C         140.9086  142.6690  168.3538 C.3     1  UNL1        0.0091
     36 C         142.0133  140.1888  169.6296 C.3     1  UNL1        0.0091
     37 C         142.7349  142.1567  169.3036 C.3     1  UNL1        0.0091
@<TRIPOS>BOND
     1    21    22    1
     2    22    11    1
     3    11    12   ar
     4    12    13   ar
     5    13    14    1
     6    13    15   ar
     7    15    16    1
     8    15    17   ar
     9    17    18   ar
    10    18     7    1
    11     7     8    2
    12     7     9   am
    13     1     9    1
    14     1     2    1
    15     2     3    1
    16     3     4    1
    17     4    25    1
    18    25    26    1
    19    26    27    1
    20    27    28    1
    21    28    29    1
    22    29    30   am
    23    30    31    2
    24    30    34    1
    25    34    35    1
    26    34    36    1
    27    34    37    1
    28    29    32    1
    29    32    33    1
    30     4     5    1
    31     5     6    1
    32     6    23    1
    33    23    24    1
    34    18    11   ar
    35     6     1    1
    36    33    26    1
    37    14    19    1
    38    14    20    1
    39     9    10    1
@<TRIPOS>MOLECULE
*****
 37 39 0 0 0
SMALL
GASTEIGER

@<TRIPOS>ATOM
      1 C         140.6562  138.9234  160.5484 C.3     1  UNL1        0.1017
      2 C         139.5543  138.6157  159.5783 C.3     1  UNL1        0.0394
      3 C         139.8845  138.2125  158.1716 C.3     1  UNL1        0.0739
      4 N         141.3164  138.1170  157.7353 N.3     1  UNL1       -0.2705
      5 C         142.4182  138.4247  158.7055 C.3     1  UNL1        0.1037
      6 C         142.0881  138.8279  160.1120 C.3     1  UNL1        0.1490
      7 C         140.3450  138.3041  163.0524 C.2     1  UNL1        0.2488
      8 O         140.6940  136.8785  162.7432 O.2     1  UNL1       -0.2700
      9 N         140.3261  139.3266  161.9550 N.am    1  UNL1       -0.2999
     10 H         140.0970  140.2623  162.1580 H       1  UNL1        0.1498
     11 C         140.9149  139.6519  165.1992 C.ar    1  UNL1        0.1443
     12 C         140.5848  140.0551  166.6058 C.ar    1  UNL1        0.0520
     13 C         139.3547  139.5138  167.2721 C.ar    1  UNL1        0.0553
     14 N         139.0246  139.9170  168.6787 N.pl3   1  UNL1       -0.3563
     15 C         138.4548  138.5693  166.5318 C.ar    1  UNL1        0.0709
     16 CL        137.2247  138.0280  167.1981 Cl      1  UNL1       -0.0810
     17 C         138.7849  138.1661  165.1253 C.ar    1  UNL1        0.0202
     18 C         140.0149  138.7074  164.4590 C.ar    1  UNL1        0.0882
     19 H         139.6153  140.5370  169.1645 H       1  UNL1        0.1424
     20 H         138.2173  139.5618  169.1160 H       1  UNL1        0.1424
     21 C         143.4982  139.6778  164.9240 C.3     1  UNL1        0.2525
     22 O         142.1449  140.1932  164.5329 O.3     1  UNL1       -0.4712
     23 O         143.1900  139.1356  161.0822 O.3     1  UNL1       -0.3505
     24 C         144.0212  138.0238  161.6504 C.3     1  UNL1        0.1741
     25 C         141.6464  137.7138  156.3287 C.3     1  UNL1        0.0722
     26 C         142.0686  136.3055  156.0317 C.3     1  UNL1        0.0194
     27 C         141.1621  135.3992  155.2527 C.3     1  UNL1        0.0229
     28 C         141.5843  133.9908  154.9556 C.3     1  UNL1        0.0934
     29 N         142.9130  133.4887  155.4376 N.am    1  UNL1       -0.2796
     30 C         143.3352  132.0803  155.1405 C.2     1  UNL1        0.2247
     31 O         144.6640  131.5782  155.6225 O.2     1  UNL1       -0.2749
     32 C         143.8196  134.3949  156.2166 C.3     1  UNL1        0.0934
     33 C         143.3974  135.8033  156.5137 C.3     1  UNL1        0.0229
     34 C         142.4286  131.1741  154.3615 C.3     1  UNL1        0.0691
     35 C         141.8441  130.6575  155.6427 C.3     1  UNL1        0.0091
     36 C         143.0131  131.6907  153.0804 C.3     1  UNL1        0.0091
     37 C         141.5221  130.2679  153.5825 C.3     1  UNL1        0.0091
@<TRIPOS>BOND
     1    21    22    1
     2    22    11    1
     3    11    12   ar
     4    12    13   ar
     5    13    14    1
     6    13    15   ar
     7    15    16    1
     8    15    17   ar
     9    17    18   ar
    10    18     7    1
    11     7     8    2
    12     7     9   am
    13     1     9    1
    14     1     2    1
    15     2     3    1
    16     3     4    1
    17     4    25    1
    18    25    26    1
    19    26    27    1
    20    27    28    1
    21    28    29    1
    22    29    30   am
    23    30    31    2
    24    30    34    1
    25    34    35    1
    26    34    36    1
    27    34    37    1
    28    29    32    1
    29    32    33    1
    30     4     5    1
    31     5     6    1
    32     6    23    1
    33    23    24    1
    34    18    11   ar
    35     6     1    1
    36    33    26    1
    37    14    19    1
    38    14    20    1
    39     9    10    1
@<TRIPOS>MOLECULE
*****
 37 39 0 0 0
SMALL
GASTEIGER

@<TRIPOS>ATOM
      1 C         141.2533  139.1613  160.8710 C.3     1  UNL1        0.1017
      2 C         142.7067  139.1961  160.5014 C.3     1  UNL1        0.0394
      3 C         143.1344  138.8468  159.1067 C.3     1  UNL1        0.0739
      4 N         142.1089  138.4628  158.0817 N.3     1  UNL1       -0.2705
      5 C         140.6556  138.4280  158.4513 C.3     1  UNL1        0.1037
      6 C         140.2278  138.7772  159.8459 C.3     1  UNL1        0.1490
      7 C         140.5611  138.4224  163.2636 C.2     1  UNL1        0.2488
      8 O         140.7244  136.9851  162.8671 O.2     1  UNL1       -0.2700
      9 N         140.8255  139.5105  162.2656 N.am    1  UNL1       -0.2999
     10 H         140.7183  140.4539  162.5259 H       1  UNL1        0.1498
     11 C         140.9727  139.6943  165.4914 C.ar    1  UNL1        0.1443
     12 C         140.5449  140.0436  166.8860 C.ar    1  UNL1        0.0520
     13 C         139.2776  139.4702  167.4475 C.ar    1  UNL1        0.0553
     14 N         138.8498  139.8195  168.8421 N.pl3   1  UNL1       -0.3563
     15 C         138.4381  138.5477  166.6144 C.ar    1  UNL1        0.0709
     16 CL        137.1708  137.9743  167.1759 Cl      1  UNL1       -0.0810
     17 C         138.8660  138.1984  165.2198 C.ar    1  UNL1        0.0202
     18 C         140.1332  138.7717  164.6583 C.ar    1  UNL1        0.0882
     19 H         139.4007  140.4251  169.3889 H       1  UNL1        0.1424
     20 H         138.0180  139.4433  169.2107 H       1  UNL1        0.1424
     21 C         142.4144  141.7546  164.8383 C.3     1  UNL1        0.2525
     22 O         142.2400  140.2676  164.9299 O.3     1  UNL1       -0.4712
     23 O         138.7744  138.7424  160.2155 O.3     1  UNL1       -0.3505
     24 C         137.9359  139.9785  160.0786 C.3     1  UNL1        0.1741
     25 C         142.5367  138.1135  156.6871 C.3     1  UNL1        0.0722
     26 C         142.7468  136.6785  156.3042 C.3     1  UNL1        0.0194
     27 C         143.0353  135.6546  157.3617 C.3     1  UNL1        0.0229
     28 C         143.2454  134.2196  156.9788 C.3     1  UNL1        0.0934
     29 N         143.1669  133.8085  155.5384 N.am    1  UNL1       -0.2796
     30 C         143.3770  132.3735  155.1555 C.2     1  UNL1        0.2247
     31 O         143.2985  131.9624  153.7151 O.2     1  UNL1       -0.2749
     32 C         142.8784  134.8324  154.4808 C.3     1  UNL1        0.0934
     33 C         142.6683  136.2674  154.8637 C.3     1  UNL1        0.0229
     34 C         143.6655  131.3496  156.2130 C.3     1  UNL1        0.0691
     35 C         145.0636  131.8773  156.3426 C.3     1  UNL1        0.0091
     36 C         142.2675  130.8219  156.0835 C.3     1  UNL1        0.0091
     37 C         143.9541  130.3257  157.2706 C.3     1  UNL1        0.0091
@<TRIPOS>BOND
     1    21    22    1
     2    22    11    1
     3    11    12   ar
     4    12    13   ar
     5    13    14    1
     6    13    15   ar
     7    15    16    1
     8    15    17   ar
     9    17    18   ar
    10    18     7    1
    11     7     8    2
    12     7     9   am
    13     1     9    1
    14     1     2    1
    15     2     3    1
    16     3     4    1
    17     4    25    1
    18    25    26    1
    19    26    27    1
    20    27    28    1
    21    28    29    1
    22    29    30   am
    23    30    31    2
    24    30    34    1
    25    34    35    1
    26    34    36    1
    27    34    37    1
    28    29    32    1
    29    32    33    1
    30     4     5    1
    31     5     6    1
    32     6    23    1
    33    23    24    1
    34    18    11   ar
    35     6     1    1
    36    33    26    1
    37    14    19    1
    38    14    20    1
    39     9    10    1
@<TRIPOS>MOLECULE
*****
 37 39 0 0 0
SMALL
GASTEIGER

@<TRIPOS>ATOM
      1 C         138.3355  139.9857  160.5616 C.3     1  UNL1        0.1017
      2 C         139.0969  138.6942  160.5147 C.3     1  UNL1        0.0394
      3 C         139.5434  138.0400  161.7886 C.3     1  UNL1        0.0739
      4 N         139.2285  138.6774  163.1094 N.3     1  UNL1       -0.2705
      5 C         138.4671  139.9689  163.1564 C.3     1  UNL1        0.1037
      6 C         138.0206  140.6231  161.8825 C.3     1  UNL1        0.1490
      7 C         138.6674  141.7909  158.7229 C.2     1  UNL1        0.2488
      8 O         139.8923  142.2879  159.4319 O.2     1  UNL1       -0.2700
      9 N         137.8890  140.6399  159.2878 N.am    1  UNL1       -0.2999
     10 H         137.0851  140.3137  158.8225 H       1  UNL1        0.1498
     11 C         138.9944  143.6016  156.8886 C.ar    1  UNL1        0.1443
     12 C         138.5479  144.2557  155.6148 C.ar    1  UNL1        0.0520
     13 C         137.3278  143.7533  154.9014 C.ar    1  UNL1        0.0553
     14 N         136.8812  144.4074  153.6275 N.pl3   1  UNL1       -0.3563
     15 C         136.5542  142.5968  155.4618 C.ar    1  UNL1        0.0709
     16 CL        135.3341  142.0944  154.7484 Cl      1  UNL1       -0.0810
     17 C         137.0008  141.9427  156.7356 C.ar    1  UNL1        0.0202
     18 C         138.2209  142.4451  157.4490 C.ar    1  UNL1        0.0882
     19 H         137.3889  145.1665  153.2596 H       1  UNL1        0.1424
     20 H         136.0804  144.0777  153.1592 H       1  UNL1        0.1424
     21 C         140.2522  145.5093  158.1250 C.3     1  UNL1        0.2525
     22 O         140.2146  144.1039  157.6020 O.3     1  UNL1       -0.4712
     23 O         137.2592  141.9146  161.9295 O.3     1  UNL1       -0.3505
     24 C         137.9160  143.1535  162.4620 C.3     1  UNL1        0.1741
     25 C         139.6749  138.0232  164.3832 C.3     1  UNL1        0.0722
     26 C         139.7188  138.8140  165.6571 C.3     1  UNL1        0.0194
     27 C         140.9296  139.6348  165.9890 C.3     1  UNL1        0.0229
     28 C         140.9735  140.4256  167.2628 C.3     1  UNL1        0.0934
     29 N         139.8067  140.3956  168.2048 N.am    1  UNL1       -0.2796
     30 C         139.8506  141.1864  169.4787 C.2     1  UNL1        0.2247
     31 O         138.6836  141.1563  170.4207 O.2     1  UNL1       -0.2749
     32 C         138.5958  139.5747  167.8730 C.3     1  UNL1        0.0934
     33 C         138.5519  138.7839  166.5991 C.3     1  UNL1        0.0229
     34 C         141.0614  142.0072  169.8106 C.3     1  UNL1        0.0691
     35 C         140.4556  143.1852  169.1068 C.3     1  UNL1        0.0091
     36 C         141.6671  140.8291  170.5143 C.3     1  UNL1        0.0091
     37 C         142.2722  142.8280  170.1424 C.3     1  UNL1        0.0091
@<TRIPOS>BOND
     1    21    22    1
     2    22    11    1
     3    11    12   ar
     4    12    13   ar
     5    13    14    1
     6    13    15   ar
     7    15    16    1
     8    15    17   ar
     9    17    18   ar
    10    18     7    1
    11     7     8    2
    12     7     9   am
    13     1     9    1
    14     1     2    1
    15     2     3    1
    16     3     4    1
    17     4    25    1
    18    25    26    1
    19    26    27    1
    20    27    28    1
    21    28    29    1
    22    29    30   am
    23    30    31    2
    24    30    34    1
    25    34    35    1
    26    34    36    1
    27    34    37    1
    28    29    32    1
    29    32    33    1
    30     4     5    1
    31     5     6    1
    32     6    23    1
    33    23    24    1
    34    18    11   ar
    35     6     1    1
    36    33    26    1
    37    14    19    1
    38    14    20    1
    39     9    10    1
@<TRIPOS>MOLECULE
*****
 37 39 0 0 0
SMALL
GASTEIGER

@<TRIPOS>ATOM
      1 C         138.4991  140.3269  160.2864 C.3     1  UNL1        0.1017
      2 C         137.9301  140.8758  161.5611 C.3     1  UNL1        0.0394
      3 C         138.0005  140.0678  162.8230 C.3     1  UNL1        0.0739
      4 N         138.6399  138.7110  162.8101 N.3     1  UNL1       -0.2705
      5 C         139.2089  138.1621  161.5354 C.3     1  UNL1        0.1037
      6 C         139.1385  138.9700  160.2735 C.3     1  UNL1        0.1490
      7 C         139.5832  142.0057  158.6262 C.2     1  UNL1        0.2488
      8 O         140.8081  142.0686  159.4896 O.2     1  UNL1       -0.2700
      9 N         138.4287  141.1348  159.0246 N.am    1  UNL1       -0.2999
     10 H         137.6247  141.0935  158.4578 H       1  UNL1        0.1498
     11 C         139.1770  142.1457  156.0638 C.ar    1  UNL1        0.1443
     12 C         139.1066  142.9536  154.8020 C.ar    1  UNL1        0.0520
     13 C         139.3719  144.4294  154.8406 C.ar    1  UNL1        0.0553
     14 N         139.3014  145.2374  153.5787 N.pl3   1  UNL1       -0.3563
     15 C         139.7076  145.0974  156.1410 C.ar    1  UNL1        0.0709
     16 CL        139.9729  146.5732  156.1796 Cl      1  UNL1       -0.0810
     17 C         139.7780  144.2894  157.4028 C.ar    1  UNL1        0.0202
     18 C         139.5127  142.8136  157.3643 C.ar    1  UNL1        0.0882
     19 H         139.0811  144.7990  152.7252 H       1  UNL1        0.1424
     20 H         139.4755  146.2060  153.6040 H       1  UNL1        0.1424
     21 C         139.8987  139.7472  155.3738 C.3     1  UNL1        0.2525
     22 O         138.9117  140.6698  156.0253 O.3     1  UNL1       -0.4712
     23 O         139.7074  138.4211  158.9988 O.3     1  UNL1       -0.3505
     24 C         141.1754  138.5465  158.7175 C.3     1  UNL1        0.1741
     25 C         138.7103  137.9031  164.0720 C.3     1  UNL1        0.0722
     26 C         139.0763  138.5654  165.3671 C.3     1  UNL1        0.0194
     27 C         140.4735  139.0654  165.5853 C.3     1  UNL1        0.0229
     28 C         140.8395  139.7276  166.8804 C.3     1  UNL1        0.0934
     29 N         139.8082  139.8899  167.9575 N.am    1  UNL1       -0.2796
     30 C         140.1742  140.5522  169.2526 C.2     1  UNL1        0.2247
     31 O         139.1428  140.7145  170.3297 O.2     1  UNL1       -0.2749
     32 C         138.4109  139.3899  167.7394 C.3     1  UNL1        0.0934
     33 C         138.0449  138.7277  166.4442 C.3     1  UNL1        0.0229
     34 C         141.5714  141.0522  169.4707 C.3     1  UNL1        0.0691
     35 C         141.9737  139.7027  169.9875 C.3     1  UNL1        0.0091
     36 C         141.1692  142.4017  168.9540 C.3     1  UNL1        0.0091
     37 C         142.9687  141.5522  169.6889 C.3     1  UNL1        0.0091
@<TRIPOS>BOND
     1    21    22    1
     2    22    11    1
     3    11    12   ar
     4    12    13   ar
     5    13    14    1
     6    13    15   ar
     7    15    16    1
     8    15    17   ar
     9    17    18   ar
    10    18     7    1
    11     7     8    2
    12     7     9   am
    13     1     9    1
    14     1     2    1
    15     2     3    1
    16     3     4    1
    17     4    25    1
    18    25    26    1
    19    26    27    1
    20    27    28    1
    21    28    29    1
    22    29    30   am
    23    30    31    2
    24    30    34    1
    25    34    35    1
    26    34    36    1
    27    34    37    1
    28    29    32    1
    29    32    33    1
    30     4     5    1
    31     5     6    1
    32     6    23    1
    33    23    24    1
    34    18    11   ar
    35     6     1    1
    36    33    26    1
    37    14    19    1
    38    14    20    1
    39     9    10    1
@<TRIPOS>MOLECULE
*****
 37 39 0 0 0
SMALL
GASTEIGER

@<TRIPOS>ATOM
      1 C         141.0336  138.8657  160.3798 C.3     1  UNL1        0.1017
      2 C         142.3876  138.4092  159.9234 C.3     1  UNL1        0.0394
      3 C         142.5721  137.8852  158.5300 C.3     1  UNL1        0.0739
      4 N         141.4027  137.8177  157.5931 N.3     1  UNL1       -0.2705
      5 C         140.0487  138.2742  158.0495 C.3     1  UNL1        0.1037
      6 C         139.8641  138.7982  159.4428 C.3     1  UNL1        0.1490
      7 C         140.8357  138.4416  162.9353 C.2     1  UNL1        0.2488
      8 O         141.0070  136.9695  162.7043 O.2     1  UNL1       -0.2700
      9 N         140.8490  139.3898  161.7731 N.am    1  UNL1       -0.2999
     10 H         140.7366  140.3560  161.9247 H       1  UNL1        0.1498
     11 C         139.3258  139.5289  164.7487 C.ar    1  UNL1        0.1443
     12 C         139.1413  140.0530  166.1420 C.ar    1  UNL1        0.0520
     13 C         140.2820  140.0139  167.1152 C.ar    1  UNL1        0.0553
     14 N         140.0974  140.5380  168.5086 N.pl3   1  UNL1       -0.3563
     15 C         141.6073  139.4507  166.6952 C.ar    1  UNL1        0.0709
     16 CL        142.7480  139.4116  167.6684 Cl      1  UNL1       -0.0810
     17 C         141.7918  138.9266  165.3019 C.ar    1  UNL1        0.0202
     18 C         140.6511  138.9657  164.3287 C.ar    1  UNL1        0.0882
     19 H         139.2276  140.9076  168.7842 H       1  UNL1        0.1424
     20 H         140.8461  140.5123  169.1474 H       1  UNL1        0.1424
     21 C         137.8310  140.8523  163.0862 C.3     1  UNL1        0.2525
     22 O         138.1851  139.5680  163.7755 O.3     1  UNL1       -0.4712
     23 O         138.5101  139.2547  159.8992 O.3     1  UNL1       -0.3505
     24 C         137.8556  140.4340  159.2428 C.3     1  UNL1        0.1741
     25 C         141.5873  137.2937  156.1998 C.3     1  UNL1        0.0722
     26 C         142.1294  135.9118  155.9839 C.3     1  UNL1        0.0194
     27 C         141.2722  134.8617  155.3420 C.3     1  UNL1        0.0229
     28 C         141.8143  133.4798  155.1260 C.3     1  UNL1        0.0934
     29 N         143.2137  133.1481  155.5521 N.am    1  UNL1       -0.2796
     30 C         143.7558  131.7663  155.3362 C.2     1  UNL1        0.2247
     31 O         145.1553  131.4347  155.7623 O.2     1  UNL1       -0.2749
     32 C         144.0711  134.1983  156.1941 C.3     1  UNL1        0.0934
     33 C         143.5289  135.5802  156.4100 C.3     1  UNL1        0.0229
     34 C         142.8986  130.7161  154.6942 C.3     1  UNL1        0.0691
     35 C         143.3390  131.1849  153.3392 C.3     1  UNL1        0.0091
     36 C         142.4581  130.2473  156.0493 C.3     1  UNL1        0.0091
     37 C         142.0413  129.6660  154.0523 C.3     1  UNL1        0.0091
@<TRIPOS>BOND
     1    21    22    1
     2    22    11    1
     3    11    12   ar
     4    12    13   ar
     5    13    14    1
     6    13    15   ar
     7    15    16    1
     8    15    17   ar
     9    17    18   ar
    10    18     7    1
    11     7     8    2
    12     7     9   am
    13     1     9    1
    14     1     2    1
    15     2     3    1
    16     3     4    1
    17     4    25    1
    18    25    26    1
    19    26    27    1
    20    27    28    1
    21    28    29    1
    22    29    30   am
    23    30    31    2
    24    30    34    1
    25    34    35    1
    26    34    36    1
    27    34    37    1
    28    29    32    1
    29    32    33    1
    30     4     5    1
    31     5     6    1
    32     6    23    1
    33    23    24    1
    34    18    11   ar
    35     6     1    1
    36    33    26    1
    37    14    19    1
    38    14    20    1
    39     9    10    1
