@<TRIPOS>MOLECULE
*****
 34 39 0 0 0
SMALL
GASTEIGER

@<TRIPOS>ATOM
      1 C         142.3250  138.3767  158.4266 C.2     1  UNL1        0.3047
      2 O         143.6125  139.1417  158.5119 O.2     1  UNL1       -0.2647
      3 N         141.1565  138.7778  159.2773 N.am    1  UNL1       -0.2647
      4 C         140.9045  139.8497  160.2959 C.3     1  UNL1        0.1391
      5 C         139.5041  139.3450  160.4805 C.3     1  UNL1        0.2052
      6 C         139.7561  138.2731  159.4619 C.3     1  UNL1        0.1391
      7 C         142.5987  135.0813  156.3943 C.ar    1  UNL1        0.2501
      8 N         141.4471  135.7517  155.7057 N.ar    1  UNL1       -0.1068
      9 N         141.2044  137.0677  156.3831 N.ar    1  UNL1       -0.1021
     10 C         142.2060  137.2108  157.4905 C.ar    1  UNL1        0.3043
     11 O         143.0678  135.9830  157.4974 O.2     1  UNL1       -0.4122
     12 C         144.3408  131.0692  155.3367 C.ar    1  UNL1        0.1387
     13 C         143.3438  131.7183  154.4231 C.ar    1  UNL1        0.0371
     14 C         142.7631  133.0557  154.7756 C.ar    1  UNL1        0.0078
     15 C         143.1794  133.7439  156.0417 C.ar    1  UNL1        0.0553
     16 C         144.1764  133.0948  156.9553 C.ar    1  UNL1        0.0078
     17 C         144.7571  131.7574  156.6028 C.ar    1  UNL1        0.0371
     18 C         144.7892  128.5817  155.9380 C.3     1  UNL1        0.2525
     19 O         144.9215  129.7318  154.9841 O.3     1  UNL1       -0.4714
     20 O         138.3356  139.7461  161.3312 O.3     1  UNL1       -0.4756
     21 C         138.4054  139.5927  162.8218 C.ar    1  UNL1        0.1385
     22 C         138.0307  140.7402  163.7122 C.ar    1  UNL1        0.0366
     23 C         138.1005  140.5869  165.2027 C.ar    1  UNL1        0.0002
     24 C         138.5450  139.2860  165.8028 C.ar    1  UNL1       -0.0059
     25 C         138.9197  138.1385  164.9124 C.ar    1  UNL1        0.0002
     26 C         138.8499  138.2919  163.4219 C.ar    1  UNL1        0.0366
     27 C         138.6148  139.1326  167.2933 C.3     1  UNL1        0.0992
     28 N         139.3465  140.1493  168.1185 N.3     1  UNL1       -0.2685
     29 C         139.2996  140.5832  169.5536 C.3     1  UNL1        0.0785
     30 C         140.3814  141.5871  169.2854 C.3     1  UNL1        0.0840
     31 C         140.3344  142.0210  170.7206 C.3     1  UNL1        0.1471
     32 O         141.4162  143.0250  170.4524 O.3     1  UNL1       -0.3534
     33 C         141.4631  142.5911  169.0172 C.3     1  UNL1        0.1471
     34 C         140.4283  141.1533  167.8503 C.3     1  UNL1        0.0785
@<TRIPOS>BOND
     1    18    19    1
     2    19    12    1
     3    12    13   ar
     4    13    14   ar
     5    14    15   ar
     6    15     7    1
     7     7     8   ar
     8     8     9   ar
     9     9    10   ar
    10    10     1    1
    11     1     2    2
    12     1     3   am
    13     3     4    1
    14     4     5    1
    15     5    20    1
    16    20    21    1
    17    21    22   ar
    18    22    23   ar
    19    23    24   ar
    20    24    27    1
    21    27    28    1
    22    28    29    1
    23    29    30    1
    24    30    31    1
    25    31    32    1
    26    32    33    1
    27    30    34    1
    28    24    25   ar
    29    25    26   ar
    30     5     6    1
    31    10    11   ar
    32    15    16   ar
    33    16    17   ar
    34    17    12   ar
    35    11     7   ar
    36     6     3    1
    37    26    21   ar
    38    34    28    1
    39    33    30    1
@<TRIPOS>MOLECULE
*****
 34 39 0 0 0
SMALL
GASTEIGER

@<TRIPOS>ATOM
      1 C         141.6458  139.6816  157.5966 C.2     1  UNL1        0.3047
      2 O         142.0258  141.0364  157.0768 O.2     1  UNL1       -0.2647
      3 N         140.5370  139.5463  158.5977 N.am    1  UNL1       -0.2647
      4 C         139.6105  140.5016  159.2899 C.3     1  UNL1        0.1391
      5 C         138.9689  139.3550  160.0135 C.3     1  UNL1        0.2052
      6 C         139.8954  138.3997  159.3213 C.3     1  UNL1        0.1391
      7 C         142.9364  136.1528  156.6234 C.ar    1  UNL1        0.2501
      8 N         144.0561  137.0183  156.1261 N.ar    1  UNL1       -0.1068
      9 N         143.7089  138.4455  156.4302 N.ar    1  UNL1       -0.1021
     10 C         142.3747  138.4621  157.1153 C.ar    1  UNL1        0.3043
     11 O         141.8972  137.0451  157.2348 O.2     1  UNL1       -0.4122
     12 C         142.7312  131.6669  156.3321 C.ar    1  UNL1        0.1387
     13 C         141.7599  132.5136  155.5642 C.ar    1  UNL1        0.0371
     14 C         141.8283  134.0089  155.6613 C.ar    1  UNL1        0.0078
     15 C         142.8680  134.6575  156.5263 C.ar    1  UNL1        0.0553
     16 C         143.8393  133.8108  157.2942 C.ar    1  UNL1        0.0078
     17 C         143.7709  132.3155  157.1971 C.ar    1  UNL1        0.0371
     18 C         142.6077  129.5090  154.8904 C.3     1  UNL1        0.2525
     19 O         142.6628  130.1716  156.2351 O.3     1  UNL1       -0.4714
     20 O         137.8601  139.2197  161.0146 O.3     1  UNL1       -0.4756
     21 C         138.1611  139.2960  162.4821 C.ar    1  UNL1        0.1385
     22 C         138.7834  138.1243  163.1820 C.ar    1  UNL1        0.0366
     23 C         139.0844  138.2006  164.6496 C.ar    1  UNL1        0.0002
     24 C         138.7632  139.4487  165.4172 C.ar    1  UNL1       -0.0059
     25 C         138.1409  140.6204  164.7172 C.ar    1  UNL1        0.0002
     26 C         137.8399  140.5441  163.2497 C.ar    1  UNL1        0.0366
     27 C         139.0642  139.5250  166.8846 C.3     1  UNL1        0.0992
     28 N         140.2399  140.3208  167.3687 N.3     1  UNL1       -0.2685
     29 C         141.3374  141.1009  166.7074 C.3     1  UNL1        0.0785
     30 C         141.9027  141.4462  168.0532 C.3     1  UNL1        0.0840
     31 C         143.0002  142.2263  167.3920 C.3     1  UNL1        0.1471
     32 O         143.5656  142.5716  168.7378 O.3     1  UNL1       -0.3534
     33 C         142.4682  141.7915  169.3990 C.3     1  UNL1        0.1471
     34 C         140.8054  140.6661  168.7145 C.3     1  UNL1        0.0785
@<TRIPOS>BOND
     1    18    19    1
     2    19    12    1
     3    12    13   ar
     4    13    14   ar
     5    14    15   ar
     6    15     7    1
     7     7     8   ar
     8     8     9   ar
     9     9    10   ar
    10    10     1    1
    11     1     2    2
    12     1     3   am
    13     3     4    1
    14     4     5    1
    15     5    20    1
    16    20    21    1
    17    21    22   ar
    18    22    23   ar
    19    23    24   ar
    20    24    27    1
    21    27    28    1
    22    28    29    1
    23    29    30    1
    24    30    31    1
    25    31    32    1
    26    32    33    1
    27    30    34    1
    28    24    25   ar
    29    25    26   ar
    30     5     6    1
    31    10    11   ar
    32    15    16   ar
    33    16    17   ar
    34    17    12   ar
    35    11     7   ar
    36     6     3    1
    37    26    21   ar
    38    34    28    1
    39    33    30    1
@<TRIPOS>MOLECULE
*****
 34 39 0 0 0
SMALL
GASTEIGER

@<TRIPOS>ATOM
      1 C         142.7639  138.7112  157.7171 C.2     1  UNL1        0.3047
      2 O         142.8344  139.9975  156.9486 O.2     1  UNL1       -0.2647
      3 N         143.1346  138.6844  159.1703 N.am    1  UNL1       -0.2647
      4 C         143.6058  139.7048  160.1637 C.3     1  UNL1        0.1391
      5 C         143.6590  138.6466  161.2254 C.3     1  UNL1        0.2052
      6 C         143.1878  137.6262  160.2321 C.3     1  UNL1        0.1391
      7 C         142.2653  135.1673  156.2147 C.ar    1  UNL1        0.2501
      8 N         141.0213  135.8599  155.7427 N.ar    1  UNL1       -0.1068
      9 N         141.0566  137.2716  156.2481 N.ar    1  UNL1       -0.1021
     10 C         142.3225  137.4517  157.0324 C.ar    1  UNL1        0.3043
     11 O         143.0696  136.1511  157.0117 O.2     1  UNL1       -0.4122
     12 C         143.3879  130.8893  155.3849 C.ar    1  UNL1        0.1387
     13 C         141.9729  131.3456  155.1856 C.ar    1  UNL1        0.0371
     14 C         141.5987  132.7716  155.4622 C.ar    1  UNL1        0.0078
     15 C         142.6395  133.7412  155.9380 C.ar    1  UNL1        0.0553
     16 C         144.0544  133.2849  156.1373 C.ar    1  UNL1        0.0078
     17 C         144.4286  131.8589  155.8608 C.ar    1  UNL1        0.0371
     18 C         144.6888  129.1374  153.9747 C.3     1  UNL1        0.2525
     19 O         143.7621  129.4633  155.1083 O.3     1  UNL1       -0.4714
     20 O         144.0298  138.6198  162.6786 O.3     1  UNL1       -0.4756
     21 C         142.9859  138.8804  163.7239 C.ar    1  UNL1        0.1385
     22 C         141.6080  139.3112  163.3169 C.ar    1  UNL1        0.0366
     23 C         140.5642  139.5717  164.3622 C.ar    1  UNL1        0.0002
     24 C         140.8983  139.4014  165.8145 C.ar    1  UNL1       -0.0059
     25 C         142.2763  138.9706  166.2216 C.ar    1  UNL1        0.0002
     26 C         143.3201  138.7101  165.1763 C.ar    1  UNL1        0.0366
     27 C         139.8546  139.6619  166.8598 C.3     1  UNL1        0.0992
     28 N         140.2299  140.3478  168.1399 N.3     1  UNL1       -0.2685
     29 C         140.8110  139.9047  169.4499 C.3     1  UNL1        0.0785
     30 C         140.7607  141.3179  169.9502 C.3     1  UNL1        0.0840
     31 C         141.3418  140.8747  171.2602 C.3     1  UNL1        0.1471
     32 O         141.2916  142.2880  171.7606 O.3     1  UNL1       -0.3534
     33 C         140.7105  142.7311  170.4506 C.3     1  UNL1        0.1471
     34 C         140.1797  141.7611  168.6403 C.3     1  UNL1        0.0785
@<TRIPOS>BOND
     1    18    19    1
     2    19    12    1
     3    12    13   ar
     4    13    14   ar
     5    14    15   ar
     6    15     7    1
     7     7     8   ar
     8     8     9   ar
     9     9    10   ar
    10    10     1    1
    11     1     2    2
    12     1     3   am
    13     3     4    1
    14     4     5    1
    15     5    20    1
    16    20    21    1
    17    21    22   ar
    18    22    23   ar
    19    23    24   ar
    20    24    27    1
    21    27    28    1
    22    28    29    1
    23    29    30    1
    24    30    31    1
    25    31    32    1
    26    32    33    1
    27    30    34    1
    28    24    25   ar
    29    25    26   ar
    30     5     6    1
    31    10    11   ar
    32    15    16   ar
    33    16    17   ar
    34    17    12   ar
    35    11     7   ar
    36     6     3    1
    37    26    21   ar
    38    34    28    1
    39    33    30    1
@<TRIPOS>MOLECULE
*****
 34 39 0 0 0
SMALL
GASTEIGER

@<TRIPOS>ATOM
      1 C         142.4763  138.2966  157.3361 C.2     1  UNL1        0.3047
      2 O         143.6907  139.1260  157.0402 O.2     1  UNL1       -0.2647
      3 N         141.3255  138.8941  158.0901 N.am    1  UNL1       -0.2647
      4 C         141.0334  140.2378  158.6895 C.3     1  UNL1        0.1391
      5 C         139.6979  139.7392  159.1564 C.3     1  UNL1        0.2052
      6 C         139.9901  138.3955  158.5570 C.3     1  UNL1        0.1391
      7 C         142.8060  134.4809  156.7063 C.ar    1  UNL1        0.2501
      8 N         141.8245  134.8670  155.6398 N.ar    1  UNL1       -0.1068
      9 N         141.5815  136.3433  155.7459 N.ar    1  UNL1       -0.1021
     10 C         142.4129  136.8697  156.8780 C.ar    1  UNL1        0.3043
     11 O         143.1697  135.7186  157.4716 O.2     1  UNL1       -0.4122
     12 C         144.3830  130.3369  157.4751 C.ar    1  UNL1        0.1387
     13 C         143.1072  130.5237  156.7087 C.ar    1  UNL1        0.0371
     14 C         142.5815  131.9050  156.4524 C.ar    1  UNL1        0.0078
     15 C         143.3317  133.0995  156.9626 C.ar    1  UNL1        0.0553
     16 C         144.6075  132.9128  157.7290 C.ar    1  UNL1        0.0078
     17 C         145.1332  131.5315  157.9853 C.ar    1  UNL1        0.0371
     18 C         145.3987  128.5813  159.0988 C.3     1  UNL1        0.2525
     19 O         144.9086  128.9556  157.7314 O.3     1  UNL1       -0.4714
     20 O         138.5471  140.3367  159.9104 O.3     1  UNL1       -0.4756
     21 C         138.4641  140.1801  161.3999 C.ar    1  UNL1        0.1385
     22 C         138.6295  138.8253  162.0220 C.ar    1  UNL1        0.0366
     23 C         138.5465  138.6687  163.5115 C.ar    1  UNL1        0.0002
     24 C         138.2981  139.8669  164.3789 C.ar    1  UNL1       -0.0059
     25 C         138.1327  141.2218  163.7568 C.ar    1  UNL1        0.0002
     26 C         138.2157  141.3784  162.2673 C.ar    1  UNL1        0.0366
     27 C         138.2151  139.7104  165.8684 C.3     1  UNL1        0.0992
     28 N         139.4613  139.7792  166.7004 N.3     1  UNL1       -0.2685
     29 C         140.9259  139.5939  166.4343 C.3     1  UNL1        0.0785
     30 C         141.2237  139.8766  167.8770 C.3     1  UNL1        0.0840
     31 C         142.6882  139.6912  167.6109 C.3     1  UNL1        0.1471
     32 O         142.9861  139.9740  169.0537 O.3     1  UNL1       -0.3534
     33 C         141.5215  140.1594  169.3197 C.3     1  UNL1        0.1471
     34 C         139.7592  140.0620  168.1431 C.3     1  UNL1        0.0785
@<TRIPOS>BOND
     1    18    19    1
     2    19    12    1
     3    12    13   ar
     4    13    14   ar
     5    14    15   ar
     6    15     7    1
     7     7     8   ar
     8     8     9   ar
     9     9    10   ar
    10    10     1    1
    11     1     2    2
    12     1     3   am
    13     3     4    1
    14     4     5    1
    15     5    20    1
    16    20    21    1
    17    21    22   ar
    18    22    23   ar
    19    23    24   ar
    20    24    27    1
    21    27    28    1
    22    28    29    1
    23    29    30    1
    24    30    31    1
    25    31    32    1
    26    32    33    1
    27    30    34    1
    28    24    25   ar
    29    25    26   ar
    30     5     6    1
    31    10    11   ar
    32    15    16   ar
    33    16    17   ar
    34    17    12   ar
    35    11     7   ar
    36     6     3    1
    37    26    21   ar
    38    34    28    1
    39    33    30    1
@<TRIPOS>MOLECULE
*****
 34 39 0 0 0
SMALL
GASTEIGER

@<TRIPOS>ATOM
      1 C         140.4928  144.1895  157.3608 C.2     1  UNL1        0.3047
      2 O         141.0222  142.9417  156.7182 O.2     1  UNL1       -0.2647
      3 N         140.6951  144.4209  158.8290 N.am    1  UNL1       -0.2647
      4 C         141.3531  143.6602  159.9418 C.3     1  UNL1        0.1391
      5 C         140.9813  144.7482  160.9053 C.3     1  UNL1        0.2052
      6 C         140.3234  145.5088  159.7924 C.3     1  UNL1        0.1391
      7 C         139.1201  147.2977  155.4847 C.ar    1  UNL1        0.2501
      8 N         138.1499  146.2417  155.0448 N.ar    1  UNL1       -0.1068
      9 N         138.5460  144.9489  155.6940 N.ar    1  UNL1       -0.1021
     10 C         139.7610  145.2058  156.5352 C.ar    1  UNL1        0.3043
     11 O         140.1158  146.6575  156.4059 O.2     1  UNL1       -0.4122
     12 C         139.0547  151.6264  154.2568 C.ar    1  UNL1        0.1387
     13 C         139.6607  150.5982  153.3482 C.ar    1  UNL1        0.0371
     14 C         139.6825  149.1553  153.7575 C.ar    1  UNL1        0.0078
     15 C         139.0983  148.7406  155.0754 C.ar    1  UNL1        0.0553
     16 C         138.4923  149.7689  155.9839 C.ar    1  UNL1        0.0078
     17 C         138.4705  151.2118  155.5746 C.ar    1  UNL1        0.0371
     18 C         138.1145  153.5245  152.7522 C.3     1  UNL1        0.2525
     19 O         139.0329  153.0694  153.8475 O.3     1  UNL1       -0.4714
     20 O         141.1837  144.9796  162.3734 O.3     1  UNL1       -0.4756
     21 C         140.7624  143.9336  163.3626 C.ar    1  UNL1        0.1385
     22 C         139.3159  143.7911  163.7332 C.ar    1  UNL1        0.0366
     23 C         138.8946  142.7452  164.7224 C.ar    1  UNL1        0.0002
     24 C         139.9198  141.8417  165.3411 C.ar    1  UNL1       -0.0059
     25 C         141.3663  141.9842  164.9704 C.ar    1  UNL1        0.0002
     26 C         141.7876  143.0301  163.9812 C.ar    1  UNL1        0.0366
     27 C         139.4986  140.7958  166.3302 C.3     1  UNL1        0.0992
     28 N         139.8322  140.9601  167.7834 N.3     1  UNL1       -0.2685
     29 C         140.3295  142.0894  168.6364 C.3     1  UNL1        0.0785
     30 C         140.3041  141.1925  169.8385 C.3     1  UNL1        0.0840
     31 C         140.8014  142.3218  170.6914 C.3     1  UNL1        0.1471
     32 O         140.7760  141.4250  171.8936 O.3     1  UNL1       -0.3534
     33 C         140.2787  140.2957  171.0406 C.3     1  UNL1        0.1471
     34 C         139.8068  140.0633  168.9856 C.3     1  UNL1        0.0785
@<TRIPOS>BOND
     1    18    19    1
     2    19    12    1
     3    12    13   ar
     4    13    14   ar
     5    14    15   ar
     6    15     7    1
     7     7     8   ar
     8     8     9   ar
     9     9    10   ar
    10    10     1    1
    11     1     2    2
    12     1     3   am
    13     3     4    1
    14     4     5    1
    15     5    20    1
    16    20    21    1
    17    21    22   ar
    18    22    23   ar
    19    23    24   ar
    20    24    27    1
    21    27    28    1
    22    28    29    1
    23    29    30    1
    24    30    31    1
    25    31    32    1
    26    32    33    1
    27    30    34    1
    28    24    25   ar
    29    25    26   ar
    30     5     6    1
    31    10    11   ar
    32    15    16   ar
    33    16    17   ar
    34    17    12   ar
    35    11     7   ar
    36     6     3    1
    37    26    21   ar
    38    34    28    1
    39    33    30    1
@<TRIPOS>MOLECULE
*****
 34 39 0 0 0
SMALL
GASTEIGER

@<TRIPOS>ATOM
      1 C         139.1801  143.5839  160.9803 C.2     1  UNL1        0.3047
      2 O         139.6021  144.9009  160.3992 O.2     1  UNL1       -0.2647
      3 N         138.9816  142.3978  160.0838 N.am    1  UNL1       -0.2647
      4 C         139.1047  142.1501  158.6096 C.3     1  UNL1        0.1391
      5 C         138.7008  140.7203  158.8161 C.3     1  UNL1        0.2052
      6 C         138.5777  140.9680  160.2903 C.3     1  UNL1        0.1391
      7 C         139.1553  142.7353  164.7676 C.ar    1  UNL1        0.2501
      8 N         138.0704  143.7686  164.6950 N.ar    1  UNL1       -0.1068
      9 N         137.9477  144.2123  163.2675 N.ar    1  UNL1       -0.1021
     10 C         138.9567  143.4532  162.4578 C.ar    1  UNL1        0.3043
     11 O         139.7030  142.5402  163.3850 O.2     1  UNL1       -0.4122
     12 C         140.5259  140.5958  168.4817 C.ar    1  UNL1        0.1387
     13 C         139.7279  139.8622  167.4449 C.ar    1  UNL1        0.0371
     14 C         139.2710  140.5753  166.2069 C.ar    1  UNL1        0.0078
     15 C         139.6122  142.0220  166.0057 C.ar    1  UNL1        0.0553
     16 C         140.4102  142.7557  167.0425 C.ar    1  UNL1        0.0078
     17 C         140.8671  142.0425  168.2805 C.ar    1  UNL1        0.0371
     18 C         142.3533  139.2750  169.7727 C.3     1  UNL1        0.2525
     19 O         140.9828  139.8827  169.7197 O.3     1  UNL1       -0.4714
     20 O         138.5022  139.5342  157.9196 O.3     1  UNL1       -0.4756
     21 C         139.6681  138.6607  157.5621 C.ar    1  UNL1        0.1385
     22 C         139.5772  137.7320  156.3878 C.ar    1  UNL1        0.0366
     23 C         140.7431  136.8585  156.0302 C.ar    1  UNL1        0.0002
     24 C         142.0000  136.9139  156.8471 C.ar    1  UNL1       -0.0059
     25 C         142.0909  137.8427  158.0215 C.ar    1  UNL1        0.0002
     26 C         140.9250  138.7161  158.3789 C.ar    1  UNL1        0.0366
     27 C         143.1659  136.0405  156.4896 C.3     1  UNL1        0.0992
     28 N         143.0018  134.5501  156.4490 N.3     1  UNL1       -0.2685
     29 C         143.5541  133.4002  157.2383 C.3     1  UNL1        0.0785
     30 C         142.7698  132.4423  156.3915 C.3     1  UNL1        0.0840
     31 C         143.3221  131.2925  157.1808 C.3     1  UNL1        0.1471
     32 O         142.5378  130.3344  156.3340 O.3     1  UNL1       -0.3534
     33 C         141.9855  131.4842  155.5446 C.3     1  UNL1        0.1471
     34 C         142.2175  133.5920  155.6021 C.3     1  UNL1        0.0785
@<TRIPOS>BOND
     1    18    19    1
     2    19    12    1
     3    12    13   ar
     4    13    14   ar
     5    14    15   ar
     6    15     7    1
     7     7     8   ar
     8     8     9   ar
     9     9    10   ar
    10    10     1    1
    11     1     2    2
    12     1     3   am
    13     3     4    1
    14     4     5    1
    15     5    20    1
    16    20    21    1
    17    21    22   ar
    18    22    23   ar
    19    23    24   ar
    20    24    27    1
    21    27    28    1
    22    28    29    1
    23    29    30    1
    24    30    31    1
    25    31    32    1
    26    32    33    1
    27    30    34    1
    28    24    25   ar
    29    25    26   ar
    30     5     6    1
    31    10    11   ar
    32    15    16   ar
    33    16    17   ar
    34    17    12   ar
    35    11     7   ar
    36     6     3    1
    37    26    21   ar
    38    34    28    1
    39    33    30    1
@<TRIPOS>MOLECULE
*****
 34 39 0 0 0
SMALL
GASTEIGER

@<TRIPOS>ATOM
      1 C         142.0819  139.5347  157.4568 C.2     1  UNL1        0.3047
      2 O         142.0688  140.7635  156.5967 O.2     1  UNL1       -0.2647
      3 N         141.4471  139.5635  158.8156 N.am    1  UNL1       -0.2647
      4 C         140.7285  140.5990  159.6288 C.3     1  UNL1        0.1391
      5 C         140.5495  139.6043  160.7372 C.3     1  UNL1        0.2052
      6 C         141.2681  138.5688  159.9239 C.3     1  UNL1        0.1391
      7 C         143.1875  135.9348  156.5170 C.ar    1  UNL1        0.2501
      8 N         144.2654  136.7487  155.8645 N.ar    1  UNL1       -0.1068
      9 N         143.9824  138.1962  156.1371 N.ar    1  UNL1       -0.1021
     10 C         142.7297  138.2770  156.9581 C.ar    1  UNL1        0.3043
     11 O         142.2384  136.8793  157.1929 O.2     1  UNL1       -0.4122
     12 C         142.8593  131.4471  156.4573 C.ar    1  UNL1        0.1387
     13 C         141.8946  132.2803  155.6665 C.ar    1  UNL1        0.0371
     14 C         142.0040  133.7762  155.6864 C.ar    1  UNL1        0.0078
     15 C         143.0781  134.4389  156.4971 C.ar    1  UNL1        0.0553
     16 C         144.0427  133.6057  157.2878 C.ar    1  UNL1        0.0078
     17 C         143.9333  132.1098  157.2679 C.ar    1  UNL1        0.0371
     18 C         143.3152  129.1428  157.5674 C.3     1  UNL1        0.2525
     19 O         142.7499  129.9513  156.4374 O.3     1  UNL1       -0.4714
     20 O         139.9147  139.6331  162.0959 O.3     1  UNL1       -0.4756
     21 C         140.6230  140.2948  163.2407 C.ar    1  UNL1        0.1385
     22 C         140.1082  141.5910  163.7927 C.ar    1  UNL1        0.0366
     23 C         140.8164  142.2528  164.9375 C.ar    1  UNL1        0.0002
     24 C         142.0395  141.6183  165.5303 C.ar    1  UNL1       -0.0059
     25 C         142.5544  140.3220  164.9782 C.ar    1  UNL1        0.0002
     26 C         141.8461  139.6603  163.8335 C.ar    1  UNL1        0.0366
     27 C         142.7478  142.2799  166.6750 C.3     1  UNL1        0.0992
     28 N         142.1353  142.2670  168.0442 N.3     1  UNL1       -0.2685
     29 C         142.5495  141.7410  169.3866 C.3     1  UNL1        0.0785
     30 C         141.2691  142.2488  169.9805 C.3     1  UNL1        0.0840
     31 C         141.6832  141.7227  171.3229 C.3     1  UNL1        0.1471
     32 O         140.4028  142.2305  171.9169 O.3     1  UNL1       -0.3534
     33 C         139.9887  142.7565  170.5745 C.3     1  UNL1        0.1471
     34 C         140.8549  142.7748  168.6382 C.3     1  UNL1        0.0785
@<TRIPOS>BOND
     1    18    19    1
     2    19    12    1
     3    12    13   ar
     4    13    14   ar
     5    14    15   ar
     6    15     7    1
     7     7     8   ar
     8     8     9   ar
     9     9    10   ar
    10    10     1    1
    11     1     2    2
    12     1     3   am
    13     3     4    1
    14     4     5    1
    15     5    20    1
    16    20    21    1
    17    21    22   ar
    18    22    23   ar
    19    23    24   ar
    20    24    27    1
    21    27    28    1
    22    28    29    1
    23    29    30    1
    24    30    31    1
    25    31    32    1
    26    32    33    1
    27    30    34    1
    28    24    25   ar
    29    25    26   ar
    30     5     6    1
    31    10    11   ar
    32    15    16   ar
    33    16    17   ar
    34    17    12   ar
    35    11     7   ar
    36     6     3    1
    37    26    21   ar
    38    34    28    1
    39    33    30    1
@<TRIPOS>MOLECULE
*****
 34 39 0 0 0
SMALL
GASTEIGER

@<TRIPOS>ATOM
      1 C         140.1351  140.8992  157.5389 C.2     1  UNL1        0.3047
      2 O         140.9059  141.9269  156.7644 O.2     1  UNL1       -0.2647
      3 N         139.4002  141.2950  158.7853 N.am    1  UNL1       -0.2647
      4 C         139.2100  142.5755  159.5430 C.3     1  UNL1        0.1391
      5 C         138.3610  141.8547  160.5479 C.3     1  UNL1        0.2052
      6 C         138.5513  140.5742  159.7901 C.3     1  UNL1        0.1391
      7 C         140.7839  137.2309  156.4494 C.ar    1  UNL1        0.2501
      8 N         139.3037  137.3402  156.2324 N.ar    1  UNL1       -0.1068
      9 N         138.8805  138.7276  156.6142 N.ar    1  UNL1       -0.1021
     10 C         140.0991  139.4759  157.0671 C.ar    1  UNL1        0.3043
     11 O         141.2755  138.5507  156.9652 O.2     1  UNL1       -0.4122
     12 C         143.3067  133.5834  155.6868 C.ar    1  UNL1        0.1387
     13 C         141.9919  133.7463  154.9835 C.ar    1  UNL1        0.0371
     14 C         141.1509  134.9621  155.2377 C.ar    1  UNL1        0.0078
     15 C         141.6248  136.0150  156.1952 C.ar    1  UNL1        0.0553
     16 C         142.9397  135.8521  156.8984 C.ar    1  UNL1        0.0078
     17 C         143.7807  134.6363  156.6442 C.ar    1  UNL1        0.0371
     18 C         144.8134  131.6633  156.5776 C.3     1  UNL1        0.2525
     19 O         144.1477  132.3676  155.4326 O.3     1  UNL1       -0.4714
     20 O         137.6262  142.2505  161.7942 O.3     1  UNL1       -0.4756
     21 C         138.0880  141.7460  163.1293 C.ar    1  UNL1        0.1385
     22 C         137.8787  140.3080  163.5009 C.ar    1  UNL1        0.0366
     23 C         138.3405  139.8035  164.8360 C.ar    1  UNL1        0.0002
     24 C         139.0114  140.7372  165.7994 C.ar    1  UNL1       -0.0059
     25 C         139.2206  142.1753  165.4277 C.ar    1  UNL1        0.0002
     26 C         138.7589  142.6797  164.0927 C.ar    1  UNL1        0.0366
     27 C         139.4732  140.2328  167.1344 C.3     1  UNL1        0.0992
     28 N         140.5073  140.9960  167.9078 N.3     1  UNL1       -0.2685
     29 C         140.5027  141.8103  169.1676 C.3     1  UNL1        0.0785
     30 C         141.9697  142.0754  169.0015 C.3     1  UNL1        0.0840
     31 C         141.9652  142.8897  170.2613 C.3     1  UNL1        0.1471
     32 O         143.4322  143.1548  170.0953 O.3     1  UNL1       -0.3534
     33 C         143.4368  142.3405  168.8354 C.3     1  UNL1        0.1471
     34 C         141.9743  141.2612  167.7418 C.3     1  UNL1        0.0785
@<TRIPOS>BOND
     1    18    19    1
     2    19    12    1
     3    12    13   ar
     4    13    14   ar
     5    14    15   ar
     6    15     7    1
     7     7     8   ar
     8     8     9   ar
     9     9    10   ar
    10    10     1    1
    11     1     2    2
    12     1     3   am
    13     3     4    1
    14     4     5    1
    15     5    20    1
    16    20    21    1
    17    21    22   ar
    18    22    23   ar
    19    23    24   ar
    20    24    27    1
    21    27    28    1
    22    28    29    1
    23    29    30    1
    24    30    31    1
    25    31    32    1
    26    32    33    1
    27    30    34    1
    28    24    25   ar
    29    25    26   ar
    30     5     6    1
    31    10    11   ar
    32    15    16   ar
    33    16    17   ar
    34    17    12   ar
    35    11     7   ar
    36     6     3    1
    37    26    21   ar
    38    34    28    1
    39    33    30    1
@<TRIPOS>MOLECULE
*****
 34 39 0 0 0
SMALL
GASTEIGER

@<TRIPOS>ATOM
      1 C         138.1207  140.8087  157.5580 C.2     1  UNL1        0.3047
      2 O         139.3863  141.1338  156.8212 O.2     1  UNL1       -0.2647
      3 N         138.1775  140.3854  158.9958 N.am    1  UNL1       -0.2647
      4 C         139.2742  140.1788  159.9981 C.3     1  UNL1        0.1391
      5 C         138.2579  139.7868  161.0294 C.3     1  UNL1        0.2052
      6 C         137.1612  139.9935  160.0271 C.3     1  UNL1        0.1391
      7 C         134.4615  140.5922  156.2820 C.ar    1  UNL1        0.2501
      8 N         135.0656  141.5235  155.2731 N.ar    1  UNL1       -0.1068
      9 N         136.5099  141.7179  155.6283 N.ar    1  UNL1       -0.1021
     10 C         136.7984  140.9068  156.8567 C.ar    1  UNL1        0.3043
     11 O         135.5323  140.2111  157.2607 O.2     1  UNL1       -0.4122
     12 C         130.1867  139.1885  156.3589 C.ar    1  UNL1        0.1387
     13 C         131.2937  138.2413  156.7159 C.ar    1  UNL1        0.0371
     14 C         132.7186  138.7092  156.6903 C.ar    1  UNL1        0.0078
     15 C         133.0365  140.1243  156.3077 C.ar    1  UNL1        0.0553
     16 C         131.9295  141.0715  155.9507 C.ar    1  UNL1        0.0078
     17 C         130.5046  140.6036  155.9763 C.ar    1  UNL1        0.0371
     18 C         127.6608  139.6457  155.9576 C.3     1  UNL1        0.2525
     19 O         128.7618  138.7206  156.3846 O.3     1  UNL1       -0.4714
     20 O         138.3147  139.3636  162.4673 O.3     1  UNL1       -0.4756
     21 C         139.1695  140.1219  163.4391 C.ar    1  UNL1        0.1385
     22 C         140.6612  139.9692  163.4038 C.ar    1  UNL1        0.0366
     23 C         141.5160  140.7275  164.3757 C.ar    1  UNL1        0.0002
     24 C         140.8789  141.6385  165.3828 C.ar    1  UNL1       -0.0059
     25 C         139.3871  141.7911  165.4181 C.ar    1  UNL1        0.0002
     26 C         138.5324  141.0329  164.4462 C.ar    1  UNL1        0.0366
     27 C         141.7336  142.3967  166.3546 C.3     1  UNL1        0.0992
     28 N         141.4219  142.3521  167.8212 N.3     1  UNL1       -0.2685
     29 C         142.0352  141.6839  169.0161 C.3     1  UNL1        0.0785
     30 C         140.9812  142.2889  169.8953 C.3     1  UNL1        0.0840
     31 C         141.5945  141.6207  171.0901 C.3     1  UNL1        0.1471
     32 O         140.5404  142.2257  171.9694 O.3     1  UNL1       -0.3534
     33 C         139.9271  142.8938  170.7746 C.3     1  UNL1        0.1471
     34 C         140.3679  142.9570  168.7005 C.3     1  UNL1        0.0785
@<TRIPOS>BOND
     1    18    19    1
     2    19    12    1
     3    12    13   ar
     4    13    14   ar
     5    14    15   ar
     6    15     7    1
     7     7     8   ar
     8     8     9   ar
     9     9    10   ar
    10    10     1    1
    11     1     2    2
    12     1     3   am
    13     3     4    1
    14     4     5    1
    15     5    20    1
    16    20    21    1
    17    21    22   ar
    18    22    23   ar
    19    23    24   ar
    20    24    27    1
    21    27    28    1
    22    28    29    1
    23    29    30    1
    24    30    31    1
    25    31    32    1
    26    32    33    1
    27    30    34    1
    28    24    25   ar
    29    25    26   ar
    30     5     6    1
    31    10    11   ar
    32    15    16   ar
    33    16    17   ar
    34    17    12   ar
    35    11     7   ar
    36     6     3    1
    37    26    21   ar
    38    34    28    1
    39    33    30    1
