@<TRIPOS>MOLECULE
*****
 34 37 0 0 0
SMALL
GASTEIGER

@<TRIPOS>ATOM
      1 C         137.4655  138.0881  167.1672 C.3     1  UNL1        0.0323
      2 C         138.5315  139.1207  166.9497 C.ar    1  UNL1       -0.0060
      3 C         139.0857  140.0486  167.9899 C.ar    1  UNL1        0.0438
      4 C         140.1273  140.9080  167.3368 C.ar    1  UNL1        0.0435
      5 N         140.2168  140.5113  165.8930 N.ar    1  UNL1       -0.3137
      6 C         139.2307  139.4067  165.6537 C.ar    1  UNL1        0.0372
      7 C         138.5840  138.4210  164.7264 C.3     1  UNL1        0.0452
      8 C         138.4500  137.8183  163.3593 C.3     1  UNL1        0.0233
      9 C         138.8646  137.7601  161.9190 C.3     1  UNL1        0.0690
     10 N         139.7168  138.2619  160.7912 N.3     1  UNL1       -0.2972
     11 C         140.7782  139.1895  160.2782 C.3     1  UNL1        0.0738
     12 C         140.9235  138.8473  158.8250 C.3     1  UNL1        0.0189
     13 C         141.7644  140.2941  160.5175 C.3     1  UNL1        0.1029
     14 N         142.4111  141.2798  161.4448 N.pl3   1  UNL1       -0.3314
     15 C         142.5451  141.8825  162.8119 C.ar    1  UNL1        0.0505
     16 C         141.5546  141.1426  163.6612 C.ar    1  UNL1        0.0319
     17 C         141.4093  141.4847  165.1144 C.ar    1  UNL1        0.0646
     18 C         142.2546  142.5668  165.7183 C.ar    1  UNL1        0.0177
     19 C         143.2451  143.3067  164.8690 C.ar    1  UNL1        0.0072
     20 C         143.3904  142.9645  163.4158 C.ar    1  UNL1        0.0663
     21 C         140.8595  141.9408  168.1413 C.3     1  UNL1        0.0446
     22 C         140.5503  142.1142  169.5987 C.3     1  UNL1        0.0128
     23 C         140.6099  142.6507  170.9982 C.3     1  UNL1        0.0008
     24 C         141.6125  143.1599  169.4317 C.3     1  UNL1        0.0008
     25 C         139.5087  141.2547  170.2518 C.3     1  UNL1        0.0695
     26 C         138.7764  140.2220  169.4474 C.2     1  UNL1        0.1739
     27 O         137.7348  139.3625  170.1004 O.2     1  UNL1       -0.2913
     28 H         138.9743  138.5016  160.1341 H       1  UNL1        0.1233
     29 H         143.0612  141.7654  160.8874 H       1  UNL1        0.1469
     30 C         144.3810  143.7045  162.5665 C.2     1  UNL1        0.2439
     31 N         145.3185  142.9459  161.6746 N.am    1  UNL1       -0.3253
     32 O         144.4339  145.2029  162.6090 O.2     1  UNL1       -0.2703
     33 H         145.2838  141.9624  161.6466 H       1  UNL1        0.1453
     34 H         145.9687  143.4315  161.1171 H       1  UNL1        0.1453
@<TRIPOS>BOND
     1     1     2    1
     2     2     3   ar
     3     3     4   ar
     4     4     5   ar
     5     5     6   ar
     6     6     7    1
     7     7     8    1
     8     8     9    1
     9     9    10    1
    10    10    11    1
    11    11    12    1
    12    11    13    1
    13    13    14    1
    14    14    15    1
    15    15    16   ar
    16    16    17   ar
    17    17    18   ar
    18    18    19   ar
    19    19    20   ar
    20    20    30    1
    21    30    31   am
    22    30    32    2
    23     4    21    1
    24    21    22    1
    25    22    23    1
    26    22    24    1
    27    22    25    1
    28    25    26    1
    29    26    27    2
    30     6     2   ar
    31    20    15   ar
    32    26     3    1
    33    17     5    1
    34    10    28    1
    35    14    29    1
    36    31    33    1
    37    31    34    1
@<TRIPOS>MOLECULE
*****
 34 37 0 0 0
SMALL
GASTEIGER

@<TRIPOS>ATOM
      1 C         144.1111  137.6435  166.8773 C.3     1  UNL1        0.0323
      2 C         143.2543  138.8679  166.7477 C.ar    1  UNL1       -0.0060
      3 C         142.5538  139.5766  167.8688 C.ar    1  UNL1        0.0438
      4 C         141.8141  140.7452  167.2881 C.ar    1  UNL1        0.0435
      5 N         142.0576  140.7588  165.8081 N.ar    1  UNL1       -0.3137
      6 C         142.9476  139.5986  165.4740 C.ar    1  UNL1        0.0372
      7 C         143.7018  138.7894  164.4609 C.3     1  UNL1        0.0452
      8 C         144.1180  138.5482  163.0401 C.3     1  UNL1        0.0233
      9 C         144.0848  138.9394  161.5925 C.3     1  UNL1        0.0690
     10 N         143.6109  139.8584  160.5058 N.3     1  UNL1       -0.2972
     11 C         142.8234  141.0589  160.0712 C.3     1  UNL1        0.0738
     12 C         143.0217  141.1365  158.5864 C.3     1  UNL1        0.0189
     13 C         141.9334  142.2191  160.4053 C.3     1  UNL1        0.1029
     14 N         141.1792  143.0282  161.4184 N.pl3   1  UNL1       -0.3314
     15 C         140.7630  143.2695  162.8392 C.ar    1  UNL1        0.0505
     16 C         141.4159  142.1724  163.6266 C.ar    1  UNL1        0.0319
     17 C         141.2176  142.0948  165.1114 C.ar    1  UNL1        0.0646
     18 C         140.3665  143.1142  165.8087 C.ar    1  UNL1        0.0177
     19 C         139.7136  144.2113  165.0213 C.ar    1  UNL1        0.0072
     20 C         139.9118  144.2889  163.5365 C.ar    1  UNL1        0.0663
     21 C         141.0145  141.6460  168.1822 C.3     1  UNL1        0.0446
     22 C         140.9546  141.3782  169.6568 C.3     1  UNL1        0.0128
     23 C         140.5943  141.5351  171.1044 C.3     1  UNL1        0.0008
     24 C         140.0898  142.6013  169.5789 C.3     1  UNL1        0.0008
     25 C         141.6942  140.2096  170.2374 C.3     1  UNL1        0.0695
     26 C         142.4938  139.3088  169.3435 C.2     1  UNL1        0.1739
     27 O         143.2335  138.1401  169.9242 O.2     1  UNL1       -0.2913
     28 H         143.1787  139.1638  159.8966 H       1  UNL1        0.1233
     29 H         140.7507  143.7483  160.9015 H       1  UNL1        0.1469
     30 C         139.2589  145.3861  162.7490 C.2     1  UNL1        0.2439
     31 N         140.0633  146.5720  162.3057 N.am    1  UNL1       -0.3253
     32 O         137.8017  145.2972  162.4048 O.2     1  UNL1       -0.2703
     33 H         141.0198  146.6303  162.5315 H       1  UNL1        0.1453
     34 H         139.6348  147.2920  161.7888 H       1  UNL1        0.1453
@<TRIPOS>BOND
     1     1     2    1
     2     2     3   ar
     3     3     4   ar
     4     4     5   ar
     5     5     6   ar
     6     6     7    1
     7     7     8    1
     8     8     9    1
     9     9    10    1
    10    10    11    1
    11    11    12    1
    12    11    13    1
    13    13    14    1
    14    14    15    1
    15    15    16   ar
    16    16    17   ar
    17    17    18   ar
    18    18    19   ar
    19    19    20   ar
    20    20    30    1
    21    30    31   am
    22    30    32    2
    23     4    21    1
    24    21    22    1
    25    22    23    1
    26    22    24    1
    27    22    25    1
    28    25    26    1
    29    26    27    2
    30     6     2   ar
    31    20    15   ar
    32    26     3    1
    33    17     5    1
    34    10    28    1
    35    14    29    1
    36    31    33    1
    37    31    34    1
@<TRIPOS>MOLECULE
*****
 34 37 0 0 0
SMALL
GASTEIGER

@<TRIPOS>ATOM
      1 C         144.9864  143.4893  166.1603 C.3     1  UNL1        0.0323
      2 C         143.7360  142.6955  165.9233 C.ar    1  UNL1       -0.0060
      3 C         142.8313  142.1383  166.9822 C.ar    1  UNL1        0.0438
      4 C         141.7068  141.4180  166.2991 C.ar    1  UNL1        0.0435
      5 N         141.9165  141.5300  164.8180 N.ar    1  UNL1       -0.3137
      6 C         143.1705  142.3195  164.5858 C.ar    1  UNL1        0.0372
      7 C         144.1630  142.9339  163.6438 C.3     1  UNL1        0.0452
      8 C         144.6281  143.2085  162.2443 C.3     1  UNL1        0.0233
      9 C         144.4410  143.0698  160.7626 C.3     1  UNL1        0.0690
     10 N         143.6520  142.5548  159.5954 N.3     1  UNL1       -0.2972
     11 C         142.4724  141.8016  159.0556 C.3     1  UNL1        0.0738
     12 C         142.6163  141.8719  157.5642 C.3     1  UNL1        0.0189
     13 C         141.2184  141.0121  159.2879 C.3     1  UNL1        0.1029
     14 N         140.2259  140.3977  160.2299 N.pl3   1  UNL1       -0.3314
     15 C         139.7608  140.1231  161.6293 C.ar    1  UNL1        0.0505
     16 C         140.7798  140.7795  162.5129 C.ar    1  UNL1        0.0319
     17 C         140.6359  140.7092  164.0043 C.ar    1  UNL1        0.0646
     18 C         139.4730  139.9825  164.6121 C.ar    1  UNL1        0.0177
     19 C         138.4540  139.3261  163.7286 C.ar    1  UNL1        0.0072
     20 C         138.5979  139.3964  162.2372 C.ar    1  UNL1        0.0663
     21 C         140.6373  140.7532  167.1140 C.3     1  UNL1        0.0446
     22 C         140.6922  140.8086  168.6119 C.3     1  UNL1        0.0128
     23 C         140.3105  140.5872  170.0456 C.3     1  UNL1        0.0008
     24 C         139.4352  140.0114  168.4267 C.3     1  UNL1        0.0008
     25 C         141.8167  141.5290  169.2950 C.3     1  UNL1        0.0695
     26 C         142.8862  142.1938  168.4802 C.2     1  UNL1        0.1739
     27 O         144.0107  142.9141  169.1632 O.2     1  UNL1       -0.2913
     28 H         144.3932  142.0316  159.1294 H       1  UNL1        0.1233
     29 H         139.5571  139.9669  159.6500 H       1  UNL1        0.1469
     30 C         137.5789  138.7399  161.3535 C.2     1  UNL1        0.2439
     31 N         137.1614  137.3230  161.6145 N.am    1  UNL1       -0.3253
     32 O         136.9774  139.5004  160.2091 O.2     1  UNL1       -0.2703
     33 H         137.5562  136.8239  162.3656 H       1  UNL1        0.1453
     34 H         136.4926  136.8922  161.0345 H       1  UNL1        0.1453
@<TRIPOS>BOND
     1     1     2    1
     2     2     3   ar
     3     3     4   ar
     4     4     5   ar
     5     5     6   ar
     6     6     7    1
     7     7     8    1
     8     8     9    1
     9     9    10    1
    10    10    11    1
    11    11    12    1
    12    11    13    1
    13    13    14    1
    14    14    15    1
    15    15    16   ar
    16    16    17   ar
    17    17    18   ar
    18    18    19   ar
    19    19    20   ar
    20    20    30    1
    21    30    31   am
    22    30    32    2
    23     4    21    1
    24    21    22    1
    25    22    23    1
    26    22    24    1
    27    22    25    1
    28    25    26    1
    29    26    27    2
    30     6     2   ar
    31    20    15   ar
    32    26     3    1
    33    17     5    1
    34    10    28    1
    35    14    29    1
    36    31    33    1
    37    31    34    1
@<TRIPOS>MOLECULE
*****
 34 37 0 0 0
SMALL
GASTEIGER

@<TRIPOS>ATOM
      1 C         143.2362  140.2710  165.4083 C.3     1  UNL1        0.0323
      2 C         142.1743  140.7855  164.4822 C.ar    1  UNL1       -0.0060
      3 C         141.1738  141.8578  164.7970 C.ar    1  UNL1        0.0438
      4 C         140.3077  142.0531  163.5880 C.ar    1  UNL1        0.0435
      5 N         140.7729  141.1015  162.5260 N.ar    1  UNL1       -0.3137
      6 C         141.9265  140.3181  163.0785 C.ar    1  UNL1        0.0372
      7 C         142.9827  139.2666  162.9090 C.3     1  UNL1        0.0452
      8 C         143.6586  138.2288  162.0627 C.3     1  UNL1        0.0233
      9 C         143.7729  137.4828  160.7664 C.3     1  UNL1        0.0690
     10 N         143.2951  137.2284  159.3675 N.3     1  UNL1       -0.2972
     11 C         142.3531  137.5339  158.2408 C.3     1  UNL1        0.0738
     12 C         142.7621  136.6105  157.1317 C.3     1  UNL1        0.0189
     13 C         141.1995  138.3173  157.6882 C.3     1  UNL1        0.1029
     14 N         140.1433  139.3687  157.8577 N.pl3   1  UNL1       -0.3314
     15 C         139.4675  140.4065  158.7041 C.ar    1  UNL1        0.0505
     16 C         140.2024  140.3801  160.0114 C.ar    1  UNL1        0.0319
     17 C         139.7934  141.3035  161.1205 C.ar    1  UNL1        0.0646
     18 C         138.6494  142.2533  160.9222 C.ar    1  UNL1        0.0177
     19 C         137.9145  142.2797  159.6149 C.ar    1  UNL1        0.0072
     20 C         138.3235  141.3563  158.5058 C.ar    1  UNL1        0.0663
     21 C         139.2073  143.0722  163.6105 C.3     1  UNL1        0.0446
     22 C         138.9730  143.8961  164.8419 C.3     1  UNL1        0.0128
     23 C         138.3645  144.9101  165.7647 C.3     1  UNL1        0.0008
     24 C         137.8956  144.4435  163.9534 C.3     1  UNL1        0.0008
     25 C         139.8391  143.7008  166.0508 C.3     1  UNL1        0.0695
     26 C         140.9395  142.6817  166.0285 C.2     1  UNL1        0.1739
     27 O         141.8056  142.4864  167.2375 O.2     1  UNL1       -0.2913
     28 H         143.1186  136.2269  159.4465 H       1  UNL1        0.1233
     29 H         139.6610  139.3860  156.9997 H       1  UNL1        0.1469
     30 C         137.5886  141.3828  157.1984 C.2     1  UNL1        0.2439
     31 N         136.9023  142.6386  156.7491 N.am    1  UNL1       -0.3253
     32 O         137.5401  140.1534  156.3404 O.2     1  UNL1       -0.2703
     33 H         136.9342  143.4454  157.3123 H       1  UNL1        0.1453
     34 H         136.4199  142.6559  155.8910 H       1  UNL1        0.1453
@<TRIPOS>BOND
     1     1     2    1
     2     2     3   ar
     3     3     4   ar
     4     4     5   ar
     5     5     6   ar
     6     6     7    1
     7     7     8    1
     8     8     9    1
     9     9    10    1
    10    10    11    1
    11    11    12    1
    12    11    13    1
    13    13    14    1
    14    14    15    1
    15    15    16   ar
    16    16    17   ar
    17    17    18   ar
    18    18    19   ar
    19    19    20   ar
    20    20    30    1
    21    30    31   am
    22    30    32    2
    23     4    21    1
    24    21    22    1
    25    22    23    1
    26    22    24    1
    27    22    25    1
    28    25    26    1
    29    26    27    2
    30     6     2   ar
    31    20    15   ar
    32    26     3    1
    33    17     5    1
    34    10    28    1
    35    14    29    1
    36    31    33    1
    37    31    34    1
@<TRIPOS>MOLECULE
*****
 34 37 0 0 0
SMALL
GASTEIGER

@<TRIPOS>ATOM
      1 C         139.0955  144.8505  166.6554 C.3     1  UNL1        0.0323
      2 C         139.9131  143.6769  166.2037 C.ar    1  UNL1       -0.0060
      3 C         140.5383  142.6432  167.0929 C.ar    1  UNL1        0.0438
      4 C         141.2607  141.6583  166.2222 C.ar    1  UNL1        0.0435
      5 N         141.0821  142.0834  164.7948 N.ar    1  UNL1       -0.3137
      6 C         140.2493  143.3308  164.7834 C.ar    1  UNL1        0.0372
      7 C         139.5694  144.4320  164.0249 C.3     1  UNL1        0.0452
      8 C         139.2247  145.0917  162.7226 C.3     1  UNL1        0.0233
      9 C         139.3075  145.1333  161.2256 C.3     1  UNL1        0.0690
     10 N         139.7956  144.5456  159.9347 N.3     1  UNL1       -0.2972
     11 C         140.5583  143.4859  159.1960 C.3     1  UNL1        0.0738
     12 C         140.4227  143.8490  157.7470 C.3     1  UNL1        0.0189
     13 C         141.3911  142.2384  159.2075 C.3     1  UNL1        0.1029
     14 N         142.0709  141.1374  159.9659 N.pl3   1  UNL1       -0.3314
     15 C         142.4157  140.4776  161.2682 C.ar    1  UNL1        0.0505
     16 C         141.7682  141.3303  162.3187 C.ar    1  UNL1        0.0319
     17 C         141.9038  140.9673  163.7678 C.ar    1  UNL1        0.0646
     18 C         142.6868  139.7515  164.1663 C.ar    1  UNL1        0.0177
     19 C         143.3343  138.8988  163.1158 C.ar    1  UNL1        0.0072
     20 C         143.1987  139.2618  161.6667 C.ar    1  UNL1        0.0663
     21 C         141.9878  140.5018  166.8416 C.3     1  UNL1        0.0446
     22 C         141.9926  140.3300  168.3317 C.3     1  UNL1        0.0128
     23 C         142.2833  139.7458  169.6824 C.3     1  UNL1        0.0008
     24 C         142.8159  139.1424  167.9301 C.3     1  UNL1        0.0008
     25 C         141.2701  141.3149  169.2024 C.3     1  UNL1        0.0695
     26 C         140.5430  142.4714  168.5831 C.2     1  UNL1        0.1739
     27 O         139.8205  143.4562  169.4538 O.2     1  UNL1       -0.2913
     28 H         140.2785  145.3653  159.5670 H       1  UNL1        0.1233
     29 H         142.4959  140.5777  159.2764 H       1  UNL1        0.1469
     30 C         143.8462  138.4091  160.6161 C.2     1  UNL1        0.2439
     31 N         144.5752  137.1586  161.0096 N.am    1  UNL1       -0.3253
     32 O         143.7646  138.8069  159.1722 O.2     1  UNL1       -0.2703
     33 H         144.6287  136.8975  161.9573 H       1  UNL1        0.1453
     34 H         145.0001  136.5989  160.3200 H       1  UNL1        0.1453
@<TRIPOS>BOND
     1     1     2    1
     2     2     3   ar
     3     3     4   ar
     4     4     5   ar
     5     5     6   ar
     6     6     7    1
     7     7     8    1
     8     8     9    1
     9     9    10    1
    10    10    11    1
    11    11    12    1
    12    11    13    1
    13    13    14    1
    14    14    15    1
    15    15    16   ar
    16    16    17   ar
    17    17    18   ar
    18    18    19   ar
    19    19    20   ar
    20    20    30    1
    21    30    31   am
    22    30    32    2
    23     4    21    1
    24    21    22    1
    25    22    23    1
    26    22    24    1
    27    22    25    1
    28    25    26    1
    29    26    27    2
    30     6     2   ar
    31    20    15   ar
    32    26     3    1
    33    17     5    1
    34    10    28    1
    35    14    29    1
    36    31    33    1
    37    31    34    1
@<TRIPOS>MOLECULE
*****
 34 37 0 0 0
SMALL
GASTEIGER

@<TRIPOS>ATOM
      1 C         139.6534  143.9512  166.3269 C.3     1  UNL1        0.0323
      2 C         140.4927  143.0783  165.4418 C.ar    1  UNL1       -0.0060
      3 C         141.2524  141.8582  165.8712 C.ar    1  UNL1        0.0438
      4 C         141.9490  141.2981  164.6666 C.ar    1  UNL1        0.0435
      5 N         141.6199  142.1720  163.4928 N.ar    1  UNL1       -0.3137
      6 C         140.7199  143.2722  163.9718 C.ar    1  UNL1        0.0372
      7 C         139.9137  144.5057  163.6918 C.3     1  UNL1        0.0452
      8 C         139.4173  145.5421  162.7275 C.3     1  UNL1        0.0233
      9 C         139.3637  146.1034  161.3377 C.3     1  UNL1        0.0690
     10 N         139.7673  146.0395  159.8944 N.3     1  UNL1       -0.2972
     11 C         140.5199  145.3673  158.7845 C.3     1  UNL1        0.0738
     12 C         140.2352  146.1944  157.5659 C.3     1  UNL1        0.0189
     13 C         141.4199  144.2671  158.3054 C.3     1  UNL1        0.1029
     14 N         142.2261  143.0336  158.5855 N.pl3   1  UNL1       -0.3314
     15 C         142.7225  141.9973  159.5497 C.ar    1  UNL1        0.0505
     16 C         142.1240  142.3783  160.8713 C.ar    1  UNL1        0.0319
     17 C         142.4087  141.5513  162.0898 C.ar    1  UNL1        0.0646
     18 C         143.2919  140.3433  161.9868 C.ar    1  UNL1        0.0177
     19 C         143.8904  139.9622  160.6653 C.ar    1  UNL1        0.0072
     20 C         143.6057  140.7893  159.4467 C.ar    1  UNL1        0.0663
     21 C         142.7929  140.0646  164.7944 C.3     1  UNL1        0.0446
     22 C         142.9403  139.3913  166.1266 C.3     1  UNL1        0.0128
     23 C         143.3830  138.4044  167.1658 C.3     1  UNL1        0.0008
     24 C         143.7906  138.4884  165.2830 C.3     1  UNL1        0.0008
     25 C         142.2437  139.9514  167.3311 C.3     1  UNL1        0.0695
     26 C         141.3997  141.1848  167.2035 C.2     1  UNL1        0.1739
     27 O         140.7031  141.7450  168.4080 O.2     1  UNL1       -0.2913
     28 H         140.1682  146.9733  159.8067 H       1  UNL1        0.1233
     29 H         142.6189  142.7836  157.7181 H       1  UNL1        0.1469
     30 C         144.2042  140.4082  158.1250 C.2     1  UNL1        0.2439
     31 N         143.7704  139.1455  157.4415 N.am    1  UNL1       -0.3253
     32 O         145.2363  141.2900  157.4870 O.2     1  UNL1       -0.2703
     33 H         143.0930  138.5667  157.8602 H       1  UNL1        0.1453
     34 H         144.1632  138.8954  156.5740 H       1  UNL1        0.1453
@<TRIPOS>BOND
     1     1     2    1
     2     2     3   ar
     3     3     4   ar
     4     4     5   ar
     5     5     6   ar
     6     6     7    1
     7     7     8    1
     8     8     9    1
     9     9    10    1
    10    10    11    1
    11    11    12    1
    12    11    13    1
    13    13    14    1
    14    14    15    1
    15    15    16   ar
    16    16    17   ar
    17    17    18   ar
    18    18    19   ar
    19    19    20   ar
    20    20    30    1
    21    30    31   am
    22    30    32    2
    23     4    21    1
    24    21    22    1
    25    22    23    1
    26    22    24    1
    27    22    25    1
    28    25    26    1
    29    26    27    2
    30     6     2   ar
    31    20    15   ar
    32    26     3    1
    33    17     5    1
    34    10    28    1
    35    14    29    1
    36    31    33    1
    37    31    34    1
@<TRIPOS>MOLECULE
*****
 34 37 0 0 0
SMALL
GASTEIGER

@<TRIPOS>ATOM
      1 C         139.4307  145.8574  162.1144 C.3     1  UNL1        0.0323
      2 C         139.6875  144.4203  161.7698 C.ar    1  UNL1       -0.0060
      3 C         139.3041  143.2321  162.6013 C.ar    1  UNL1        0.0438
      4 C         139.7524  141.9965  161.8786 C.ar    1  UNL1        0.0435
      5 N         140.4129  142.4210  160.6005 N.ar    1  UNL1       -0.3137
      6 C         140.3728  143.9189  160.5332 C.ar    1  UNL1        0.0372
      7 C         140.6918  145.1960  159.8140 C.3     1  UNL1        0.0452
      8 C         141.2844  145.9100  158.6354 C.3     1  UNL1        0.0233
      9 C         141.9919  145.8696  157.3135 C.3     1  UNL1        0.0690
     10 N         142.6247  145.0857  156.2022 N.3     1  UNL1       -0.2972
     11 C         143.0133  143.7682  155.5993 C.3     1  UNL1        0.0738
     12 C         143.6863  144.1169  154.3050 C.3     1  UNL1        0.0189
     13 C         143.0534  142.2702  155.6666 C.3     1  UNL1        0.1029
     14 N         142.7344  140.9932  156.3858 N.pl3   1  UNL1       -0.3314
     15 C         142.1417  140.2792  157.5644 C.ar    1  UNL1        0.0505
     16 C         141.6131  141.3670  158.4516 C.ar    1  UNL1        0.0319
     17 C         140.9401  141.0183  159.7460 C.ar    1  UNL1        0.0646
     18 C         140.7957  139.5818  160.1531 C.ar    1  UNL1        0.0177
     19 C         141.3244  138.4940  159.2659 C.ar    1  UNL1        0.0072
     20 C         141.9974  138.8428  157.9715 C.ar    1  UNL1        0.0663
     21 C         139.5013  140.6445  162.4778 C.3     1  UNL1        0.0446
     22 C         138.8019  140.5280  163.7996 C.3     1  UNL1        0.0128
     23 C         138.1836  139.9077  165.0173 C.3     1  UNL1        0.0008
     24 C         139.0355  139.0770  163.4998 C.3     1  UNL1        0.0008
     25 C         138.3536  141.7637  164.5222 C.3     1  UNL1        0.0695
     26 C         138.6046  143.1157  163.9231 C.2     1  UNL1        0.1739
     27 O         138.1563  144.3513  164.6458 O.2     1  UNL1       -0.2913
     28 H         143.5440  145.5276  156.2082 H       1  UNL1        0.1233
     29 H         143.0814  140.2793  155.8035 H       1  UNL1        0.1469
     30 C         142.5261  137.7550  157.0842 C.2     1  UNL1        0.2439
     31 N         141.7001  136.5297  156.8263 N.am    1  UNL1       -0.3253
     32 O         143.8806  137.8925  156.4548 O.2     1  UNL1       -0.2703
     33 H         140.8111  136.4394  157.2394 H       1  UNL1        0.1453
     34 H         142.0471  135.8157  156.2439 H       1  UNL1        0.1453
@<TRIPOS>BOND
     1     1     2    1
     2     2     3   ar
     3     3     4   ar
     4     4     5   ar
     5     5     6   ar
     6     6     7    1
     7     7     8    1
     8     8     9    1
     9     9    10    1
    10    10    11    1
    11    11    12    1
    12    11    13    1
    13    13    14    1
    14    14    15    1
    15    15    16   ar
    16    16    17   ar
    17    17    18   ar
    18    18    19   ar
    19    19    20   ar
    20    20    30    1
    21    30    31   am
    22    30    32    2
    23     4    21    1
    24    21    22    1
    25    22    23    1
    26    22    24    1
    27    22    25    1
    28    25    26    1
    29    26    27    2
    30     6     2   ar
    31    20    15   ar
    32    26     3    1
    33    17     5    1
    34    10    28    1
    35    14    29    1
    36    31    33    1
    37    31    34    1
@<TRIPOS>MOLECULE
*****
 34 37 0 0 0
SMALL
GASTEIGER

@<TRIPOS>ATOM
      1 C         140.7735  137.1077  156.7497 C.3     1  UNL1        0.0323
      2 C         140.4574  138.4800  157.2663 C.ar    1  UNL1       -0.0060
      3 C         139.4763  139.4434  156.6669 C.ar    1  UNL1        0.0438
      4 C         139.4794  140.6887  157.5032 C.ar    1  UNL1        0.0435
      5 N         140.4625  140.4948  158.6195 N.ar    1  UNL1       -0.3137
      6 C         141.0669  139.1299  158.4731 C.ar    1  UNL1        0.0372
      7 C         142.0089  138.0676  158.9569 C.3     1  UNL1        0.0452
      8 C         143.0363  137.5927  159.9414 C.3     1  UNL1        0.0233
      9 C         143.8735  137.8324  161.1626 C.3     1  UNL1        0.0690
     10 N         144.2964  138.7225  162.2935 N.3     1  UNL1       -0.2972
     11 C         144.1915  140.0245  163.0310 C.3     1  UNL1        0.0738
     12 C         145.1567  139.9028  164.1727 C.3     1  UNL1        0.0189
     13 C         143.5871  141.3895  163.1774 C.3     1  UNL1        0.1029
     14 N         142.6451  142.4517  162.6935 N.pl3   1  UNL1       -0.3314
     15 C         141.6178  142.9266  161.7091 C.ar    1  UNL1        0.0505
     16 C         141.4532  141.7919  160.7420 C.ar    1  UNL1        0.0319
     17 C         140.4880  141.9137  159.6002 C.ar    1  UNL1        0.0646
     18 C         139.6875  143.1702  159.4256 C.ar    1  UNL1        0.0177
     19 C         139.8521  144.3049  160.3926 C.ar    1  UNL1        0.0072
     20 C         140.8173  144.1831  161.5344 C.ar    1  UNL1        0.0663
     21 C         138.5867  141.8381  157.1402 C.3     1  UNL1        0.0446
     22 C         137.6909  141.7425  155.9409 C.3     1  UNL1        0.0128
     23 C         136.6734  142.1254  154.9074 C.3     1  UNL1        0.0008
     24 C         137.3407  143.1206  156.4183 C.3     1  UNL1        0.0008
     25 C         137.6878  140.4972  155.1047 C.3     1  UNL1        0.0695
     26 C         138.5804  139.3477  155.4676 C.2     1  UNL1        0.1739
     27 O         138.5773  138.1025  154.6313 O.2     1  UNL1       -0.2913
     28 H         145.3006  138.7287  162.1152 H       1  UNL1        0.1233
     29 H         142.7532  143.1965  163.3283 H       1  UNL1        0.1469
     30 C         140.9819  145.3178  162.5016 C.2     1  UNL1        0.2439
     31 N         140.1431  146.5531  162.3583 N.am    1  UNL1       -0.3253
     32 O         141.9854  145.2173  163.6119 O.2     1  UNL1       -0.2703
     33 H         139.4845  146.6191  161.6295 H       1  UNL1        0.1453
     34 H         140.2512  147.2978  162.9931 H       1  UNL1        0.1453
@<TRIPOS>BOND
     1     1     2    1
     2     2     3   ar
     3     3     4   ar
     4     4     5   ar
     5     5     6   ar
     6     6     7    1
     7     7     8    1
     8     8     9    1
     9     9    10    1
    10    10    11    1
    11    11    12    1
    12    11    13    1
    13    13    14    1
    14    14    15    1
    15    15    16   ar
    16    16    17   ar
    17    17    18   ar
    18    18    19   ar
    19    19    20   ar
    20    20    30    1
    21    30    31   am
    22    30    32    2
    23     4    21    1
    24    21    22    1
    25    22    23    1
    26    22    24    1
    27    22    25    1
    28    25    26    1
    29    26    27    2
    30     6     2   ar
    31    20    15   ar
    32    26     3    1
    33    17     5    1
    34    10    28    1
    35    14    29    1
    36    31    33    1
    37    31    34    1
@<TRIPOS>MOLECULE
*****
 34 37 0 0 0
SMALL
GASTEIGER

@<TRIPOS>ATOM
      1 C         141.0131  138.4459  163.9270 C.3     1  UNL1        0.0323
      2 C         140.9030  139.7676  163.2266 C.ar    1  UNL1       -0.0060
      3 C         140.3751  141.0395  163.8213 C.ar    1  UNL1        0.0438
      4 C         140.4473  142.1076  162.7706 C.ar    1  UNL1        0.0435
      5 N         141.0199  141.4959  161.5265 N.ar    1  UNL1       -0.3137
      6 C         141.3015  140.0498  161.8082 C.ar    1  UNL1        0.0372
      7 C         141.8007  138.7108  161.3524 C.3     1  UNL1        0.0452
      8 C         142.3838  137.8376  160.2810 C.3     1  UNL1        0.0233
      9 C         142.8943  137.6643  158.8813 C.3     1  UNL1        0.0690
     10 N         143.1956  138.2373  157.5282 N.3     1  UNL1       -0.2972
     11 C         143.2070  139.4031  156.5843 C.3     1  UNL1        0.0738
     12 C         143.7730  138.8614  155.3052 C.3     1  UNL1        0.0189
     13 C         142.9253  140.8492  156.3026 C.3     1  UNL1        0.1029
     14 N         142.4261  142.1881  156.7584 N.pl3   1  UNL1       -0.3314
     15 C         141.8431  143.0613  157.8298 C.ar    1  UNL1        0.0505
     16 C         141.6813  142.1613  159.0187 C.ar    1  UNL1        0.0319
     17 C         141.1152  142.7030  160.2978 C.ar    1  UNL1        0.0646
     18 C         140.7110  144.1447  160.3879 C.ar    1  UNL1        0.0177
     19 C         140.8729  145.0447  159.1990 C.ar    1  UNL1        0.0072
     20 C         141.4389  144.5030  157.9199 C.ar    1  UNL1        0.0663
     21 C         139.9823  143.4991  163.0826 C.3     1  UNL1        0.0446
     22 C         139.4451  143.8227  164.4452 C.3     1  UNL1        0.0128
     23 C         138.8627  144.6124  165.5798 C.3     1  UNL1        0.0008
     24 C         139.3151  145.1650  163.7885 C.3     1  UNL1        0.0008
     25 C         139.3729  142.7546  165.4958 C.3     1  UNL1        0.0695
     26 C         139.8378  141.3630  165.1840 C.2     1  UNL1        0.1739
     27 O         139.7656  140.2949  166.2347 O.2     1  UNL1       -0.2913
     28 H         142.6482  137.5885  156.9626 H       1  UNL1        0.1233
     29 H         142.5324  142.7789  155.9780 H       1  UNL1        0.1469
     30 C         141.6008  145.4031  156.7308 C.2     1  UNL1        0.2439
     31 N         140.7791  146.6530  156.6189 N.am    1  UNL1       -0.3253
     32 O         142.5843  145.0531  155.6537 O.2     1  UNL1       -0.2703
     33 H         140.1336  146.8826  157.3259 H       1  UNL1        0.1453
     34 H         140.8853  147.2437  155.8385 H       1  UNL1        0.1453
@<TRIPOS>BOND
     1     1     2    1
     2     2     3   ar
     3     3     4   ar
     4     4     5   ar
     5     5     6   ar
     6     6     7    1
     7     7     8    1
     8     8     9    1
     9     9    10    1
    10    10    11    1
    11    11    12    1
    12    11    13    1
    13    13    14    1
    14    14    15    1
    15    15    16   ar
    16    16    17   ar
    17    17    18   ar
    18    18    19   ar
    19    19    20   ar
    20    20    30    1
    21    30    31   am
    22    30    32    2
    23     4    21    1
    24    21    22    1
    25    22    23    1
    26    22    24    1
    27    22    25    1
    28    25    26    1
    29    26    27    2
    30     6     2   ar
    31    20    15   ar
    32    26     3    1
    33    17     5    1
    34    10    28    1
    35    14    29    1
    36    31    33    1
    37    31    34    1
