@<TRIPOS>MOLECULE
*****
 32 35 0 0 0
SMALL
GASTEIGER

@<TRIPOS>ATOM
      1 C         140.0304  139.2702  165.5025 C.ar    1  UNL1        0.1626
      2 N         141.1336  140.1602  165.0117 N.ar    1  UNL1       -0.2096
      3 C         142.1187  139.6473  164.0036 C.ar    1  UNL1        0.1646
      4 C         142.0007  138.2443  163.4862 C.ar    1  UNL1        0.1194
      5 C         140.8975  137.3543  163.9769 C.ar    1  UNL1        0.0547
      6 C         139.9123  137.8673  164.9851 C.ar    1  UNL1        0.1732
      7 F         138.8091  136.9773  165.4759 F       1  UNL1       -0.2012
      8 N         143.1109  138.0177  162.5033 N.ar    1  UNL1       -0.2222
      9 C         143.9151  139.2807  162.4132 C.ar    1  UNL1        0.1800
     10 N         143.3019  140.2878  163.3405 N.ar    1  UNL1       -0.2884
     11 N         139.0453  139.7833  166.5107 N.pl3   1  UNL1       -0.2800
     12 H         138.1306  140.0164  166.2307 H       1  UNL1        0.1551
     13 C         140.7578  140.4257  169.9341 C.ar    1  UNL1        0.2215
     14 C         140.7867  140.4250  168.4344 C.ar    1  UNL1        0.0932
     15 C         139.4538  139.9411  167.9453 C.ar    1  UNL1        0.1575
     16 N         138.6011  139.6428  169.1428 N.ar    1  UNL1       -0.1550
     17 N         139.4071  139.9423  170.3719 N.ar    1  UNL1       -0.2446
     18 H         139.1029  139.8396  171.3026 H       1  UNL1        0.1920
     19 O         141.8823  140.8375  170.8374 O.3     1  UNL1       -0.4605
     20 C         143.7323  142.3393  169.8017 C.3     1  UNL1        0.0512
     21 C         142.5212  142.1847  170.6732 C.3     1  UNL1        0.2072
     22 C         143.7868  141.6894  163.5651 C.3     1  UNL1        0.1575
     23 C         142.8951  142.8521  163.2441 C.ar    1  UNL1        0.0823
     24 C         143.0245  144.1318  164.0156 C.ar    1  UNL1        0.0190
     25 C         142.1328  145.2946  163.6947 C.ar    1  UNL1        0.0325
     26 C         141.1117  145.1773  162.6021 C.ar    1  UNL1        0.1592
     27 F         140.2199  146.3400  162.2811 F       1  UNL1       -0.2025
     28 C         140.9823  143.8975  161.8306 C.ar    1  UNL1        0.1280
     29 N         141.8740  142.7349  162.1516 N.ar    1  UNL1       -0.2438
     30 C         145.1635  141.9283  164.1107 C.3     1  UNL1        0.1658
     31 O         146.3543  141.8518  163.2017 O.3     1  UNL1       -0.3796
     32 H         146.4611  140.9413  162.8847 H       1  UNL1        0.2105
@<TRIPOS>BOND
     1    20    21    1
     2    21    19    1
     3    19    13    1
     4    13    14   ar
     5    14    15   ar
     6    15    11    1
     7    11     1    1
     8     1     2   ar
     9     2     3   ar
    10     3     4   ar
    11     4     5   ar
    12     5     6   ar
    13     6     7    1
    14     4     8   ar
    15     8     9   ar
    16     9    10   ar
    17    10    22    1
    18    22    30    1
    19    30    31    1
    20    22    23    1
    21    23    24   ar
    22    24    25   ar
    23    25    26   ar
    24    26    27    1
    25    26    28   ar
    26    28    29   ar
    27    15    16   ar
    28    16    17   ar
    29    17    13   ar
    30     6     1   ar
    31    29    23   ar
    32    10     3   ar
    33    11    12    1
    34    31    32    1
    35    17    18    1
@<TRIPOS>MOLECULE
*****
 32 35 0 0 0
SMALL
GASTEIGER

@<TRIPOS>ATOM
      1 C         138.0481  141.9802  162.2512 C.ar    1  UNL1        0.1626
      2 N         138.2988  141.3379  163.5833 N.ar    1  UNL1       -0.2096
      3 C         138.5349  139.8591  163.6703 C.ar    1  UNL1        0.1646
      4 C         138.5202  139.0227  162.4252 C.ar    1  UNL1        0.1194
      5 C         138.2695  139.6651  161.0931 C.ar    1  UNL1        0.0547
      6 C         138.0334  141.1439  161.0062 C.ar    1  UNL1        0.1732
      7 F         137.7827  141.7863  159.6740 F       1  UNL1       -0.2012
      8 N         138.7830  137.5996  162.8196 N.ar    1  UNL1       -0.2222
      9 C         138.9601  137.5564  164.3085 C.ar    1  UNL1        0.1800
     10 N         138.8068  138.9529  164.8343 N.ar    1  UNL1       -0.2884
     11 N         137.8120  143.4590  162.1643 N.pl3   1  UNL1       -0.2800
     12 H         136.9132  143.8027  161.9564 H       1  UNL1        0.1551
     13 C         141.0208  145.3831  163.1973 C.ar    1  UNL1        0.2215
     14 C         140.1473  144.1652  163.2566 C.ar    1  UNL1        0.0932
     15 C         138.9455  144.4142  162.3940 C.ar    1  UNL1        0.1575
     16 N         139.0764  145.7861  161.8017 N.ar    1  UNL1       -0.1550
     17 N         140.3590  146.3849  162.2982 N.ar    1  UNL1       -0.2446
     18 H         140.7055  147.2785  162.0733 H       1  UNL1        0.1920
     19 O         142.3268  145.5670  163.9117 O.3     1  UNL1       -0.4605
     20 C         143.9207  143.6832  164.7248 C.3     1  UNL1        0.0512
     21 C         143.4641  144.6246  163.6499 C.3     1  UNL1        0.2072
     22 C         138.9076  139.3699  166.2716 C.3     1  UNL1        0.1575
     23 C         140.0841  140.1749  166.7383 C.ar    1  UNL1        0.0823
     24 C         139.9684  141.6644  166.8711 C.ar    1  UNL1        0.0190
     25 C         141.1448  142.4695  167.3378 C.ar    1  UNL1        0.0325
     26 C         142.4371  141.7848  167.6716 C.ar    1  UNL1        0.1592
     27 F         143.6136  142.5898  168.1383 F       1  UNL1       -0.2025
     28 C         142.5528  140.2952  167.5388 C.ar    1  UNL1        0.1280
     29 N         141.3763  139.4902  167.0722 N.ar    1  UNL1       -0.2438
     30 C         137.8318  138.9818  167.2423 C.3     1  UNL1        0.1658
     31 O         137.2047  137.6215  167.1625 O.3     1  UNL1       -0.3796
     32 H         136.7103  137.5415  166.3318 H       1  UNL1        0.2105
@<TRIPOS>BOND
     1    20    21    1
     2    21    19    1
     3    19    13    1
     4    13    14   ar
     5    14    15   ar
     6    15    11    1
     7    11     1    1
     8     1     2   ar
     9     2     3   ar
    10     3     4   ar
    11     4     5   ar
    12     5     6   ar
    13     6     7    1
    14     4     8   ar
    15     8     9   ar
    16     9    10   ar
    17    10    22    1
    18    22    30    1
    19    30    31    1
    20    22    23    1
    21    23    24   ar
    22    24    25   ar
    23    25    26   ar
    24    26    27    1
    25    26    28   ar
    26    28    29   ar
    27    15    16   ar
    28    16    17   ar
    29    17    13   ar
    30     6     1   ar
    31    29    23   ar
    32    10     3   ar
    33    11    12    1
    34    31    32    1
    35    17    18    1
@<TRIPOS>MOLECULE
*****
 32 35 0 0 0
SMALL
GASTEIGER

@<TRIPOS>ATOM
      1 C         138.6621  139.2426  167.2793 C.ar    1  UNL1        0.1626
      2 N         139.6701  140.0825  166.5523 N.ar    1  UNL1       -0.2096
      3 C         140.1492  139.6696  165.1921 C.ar    1  UNL1        0.1646
      4 C         139.6203  138.4168  164.5590 C.ar    1  UNL1        0.1194
      5 C         138.6123  137.5769  165.2860 C.ar    1  UNL1        0.0547
      6 C         138.1332  137.9899  166.6462 C.ar    1  UNL1        0.1732
      7 F         137.1252  137.1500  167.3732 F       1  UNL1       -0.2012
      8 N         140.2734  138.2641  163.2173 N.ar    1  UNL1       -0.2222
      9 C         141.2059  139.4225  163.0212 C.ar    1  UNL1        0.1800
     10 N         141.1292  140.2912  164.2417 N.ar    1  UNL1       -0.2884
     11 N         138.1830  139.6556  168.6395 N.pl3   1  UNL1       -0.2800
     12 H         137.2318  139.5623  168.8756 H       1  UNL1        0.1551
     13 C         140.7047  141.6931  170.7737 C.ar    1  UNL1        0.2215
     14 C         139.8180  141.5536  169.5720 C.ar    1  UNL1        0.0932
     15 C         139.1533  140.2106  169.6397 C.ar    1  UNL1        0.1575
     16 N         139.6292  139.5201  170.8834 N.ar    1  UNL1       -0.1550
     17 N         140.5880  140.4363  171.5842 N.ar    1  UNL1       -0.2446
     18 H         141.0582  140.2462  172.4280 H       1  UNL1        0.1920
     19 O         141.5582  142.8808  171.1065 O.3     1  UNL1       -0.4605
     20 C         143.5252  141.9178  169.7087 C.3     1  UNL1        0.0512
     21 C         142.8818  143.0675  170.4258 C.3     1  UNL1        0.2072
     22 C         141.8975  141.5588  164.4714 C.3     1  UNL1        0.1575
     23 C         141.4114  142.8483  163.8791 C.ar    1  UNL1        0.0823
     24 C         142.1570  144.1228  164.1427 C.ar    1  UNL1        0.0190
     25 C         141.6709  145.4124  163.5504 C.ar    1  UNL1        0.0325
     26 C         140.4391  145.4273  162.6945 C.ar    1  UNL1        0.1592
     27 F         139.9530  146.7168  162.1021 F       1  UNL1       -0.2025
     28 C         139.6935  144.1527  162.4309 C.ar    1  UNL1        0.1280
     29 N         140.1796  142.8632  163.0232 N.ar    1  UNL1       -0.2438
     30 C         143.1520  141.5369  165.2935 C.3     1  UNL1        0.1658
     31 O         143.7392  140.2278  165.7311 O.3     1  UNL1       -0.3796
     32 H         143.1323  139.7917  166.3495 H       1  UNL1        0.2105
@<TRIPOS>BOND
     1    20    21    1
     2    21    19    1
     3    19    13    1
     4    13    14   ar
     5    14    15   ar
     6    15    11    1
     7    11     1    1
     8     1     2   ar
     9     2     3   ar
    10     3     4   ar
    11     4     5   ar
    12     5     6   ar
    13     6     7    1
    14     4     8   ar
    15     8     9   ar
    16     9    10   ar
    17    10    22    1
    18    22    30    1
    19    30    31    1
    20    22    23    1
    21    23    24   ar
    22    24    25   ar
    23    25    26   ar
    24    26    27    1
    25    26    28   ar
    26    28    29   ar
    27    15    16   ar
    28    16    17   ar
    29    17    13   ar
    30     6     1   ar
    31    29    23   ar
    32    10     3   ar
    33    11    12    1
    34    31    32    1
    35    17    18    1
@<TRIPOS>MOLECULE
*****
 32 35 0 0 0
SMALL
GASTEIGER

@<TRIPOS>ATOM
      1 C         143.1543  143.9415  162.9057 C.ar    1  UNL1        0.1626
      2 N         143.0399  142.5740  162.3002 N.ar    1  UNL1       -0.2096
      3 C         143.7291  141.4082  162.9450 C.ar    1  UNL1        0.1646
      4 C         144.5327  141.6099  164.1954 C.ar    1  UNL1        0.1194
      5 C         144.6471  142.9775  164.8010 C.ar    1  UNL1        0.0547
      6 C         143.9578  144.1433  164.1560 C.ar    1  UNL1        0.1732
      7 F         144.0722  145.5109  164.7616 F       1  UNL1       -0.2012
      8 N         145.0968  140.2813  164.6034 N.ar    1  UNL1       -0.2222
      9 C         144.6417  139.2583  163.6052 C.ar    1  UNL1        0.1800
     10 N         143.7964  139.9548  162.5802 N.ar    1  UNL1       -0.2884
     11 N         142.4650  145.1074  162.2608 N.pl3   1  UNL1       -0.2800
     12 H         142.9941  145.8031  161.8079 H       1  UNL1        0.1551
     13 C         138.6382  144.7679  162.8143 C.ar    1  UNL1        0.2215
     14 C         140.0422  144.2918  163.0422 C.ar    1  UNL1        0.0932
     15 C         140.9694  145.2131  162.3061 C.ar    1  UNL1        0.1575
     16 N         140.1383  146.2585  161.6232 N.ar    1  UNL1       -0.1550
     17 N         138.6976  145.9834  161.9373 N.ar    1  UNL1       -0.2446
     18 H         137.9263  146.5084  161.6230 H       1  UNL1        0.1920
     19 O         137.3934  144.1390  163.3664 O.3     1  UNL1       -0.4605
     20 C         137.3618  141.5577  163.0729 C.3     1  UNL1        0.0512
     21 C         137.4487  142.7632  163.9614 C.3     1  UNL1        0.2072
     22 C         143.1347  139.3109  161.3980 C.3     1  UNL1        0.1575
     23 C         141.6728  138.9786  161.4457 C.ar    1  UNL1        0.0823
     24 C         141.1351  138.1169  162.5494 C.ar    1  UNL1        0.0190
     25 C         139.6732  137.7846  162.5971 C.ar    1  UNL1        0.0325
     26 C         138.7489  138.3141  161.5410 C.ar    1  UNL1        0.1592
     27 F         137.2869  137.9818  161.5886 F       1  UNL1       -0.2025
     28 C         139.2866  139.1758  160.4372 C.ar    1  UNL1        0.1280
     29 N         140.7485  139.5081  160.3896 N.ar    1  UNL1       -0.2438
     30 C         143.9350  138.9993  160.1682 C.3     1  UNL1        0.1658
     31 O         143.2407  138.5628  158.9122 O.3     1  UNL1       -0.3796
     32 H         142.8229  137.6994  159.0570 H       1  UNL1        0.2105
@<TRIPOS>BOND
     1    20    21    1
     2    21    19    1
     3    19    13    1
     4    13    14   ar
     5    14    15   ar
     6    15    11    1
     7    11     1    1
     8     1     2   ar
     9     2     3   ar
    10     3     4   ar
    11     4     5   ar
    12     5     6   ar
    13     6     7    1
    14     4     8   ar
    15     8     9   ar
    16     9    10   ar
    17    10    22    1
    18    22    30    1
    19    30    31    1
    20    22    23    1
    21    23    24   ar
    22    24    25   ar
    23    25    26   ar
    24    26    27    1
    25    26    28   ar
    26    28    29   ar
    27    15    16   ar
    28    16    17   ar
    29    17    13   ar
    30     6     1   ar
    31    29    23   ar
    32    10     3   ar
    33    11    12    1
    34    31    32    1
    35    17    18    1
@<TRIPOS>MOLECULE
*****
 32 35 0 0 0
SMALL
GASTEIGER

@<TRIPOS>ATOM
      1 C         141.4508  139.1477  164.3327 C.ar    1  UNL1        0.1626
      2 N         140.7077  140.1822  163.5404 N.ar    1  UNL1       -0.2096
      3 C         139.5882  139.7693  162.6315 C.ar    1  UNL1        0.1646
      4 C         139.2117  138.3220  162.5148 C.ar    1  UNL1        0.1194
      5 C         139.9548  137.2875  163.3071 C.ar    1  UNL1        0.0547
      6 C         141.0744  137.7005  164.2160 C.ar    1  UNL1        0.1732
      7 F         141.8175  136.6660  165.0084 F       1  UNL1       -0.2012
      8 N         138.0726  138.2160  161.5446 N.ar    1  UNL1       -0.2222
      9 C         137.7451  139.5979  161.0617 C.ar    1  UNL1        0.1800
     10 N         138.6817  140.5579  161.7334 N.ar    1  UNL1       -0.2884
     11 N         142.5703  139.5606  165.2417 N.pl3   1  UNL1       -0.2800
     12 H         143.4318  139.8487  164.8621 H       1  UNL1        0.1551
     13 C         141.4700  139.9253  168.9460 C.ar    1  UNL1        0.2215
     14 C         141.2769  140.2162  167.4872 C.ar    1  UNL1        0.0932
     15 C         142.3772  139.5346  166.7289 C.ar    1  UNL1        0.1575
     16 N         143.2504  138.8226  167.7191 N.ar    1  UNL1       -0.1550
     17 N         142.6897  139.0640  169.0893 N.ar    1  UNL1       -0.2446
     18 H         143.0577  138.7180  169.9344 H       1  UNL1        0.1920
     19 O         140.5969  140.4105  170.0649 O.3     1  UNL1       -0.4605
     20 C         140.4276  142.9861  169.7681 C.3     1  UNL1        0.0512
     21 C         139.7647  141.6456  169.8853 C.3     1  UNL1        0.2072
     22 C         138.7074  142.0452  161.5408 C.3     1  UNL1        0.1575
     23 C         138.6545  142.9566  162.7310 C.ar    1  UNL1        0.0823
     24 C         137.4777  142.9096  163.6599 C.ar    1  UNL1        0.0190
     25 C         137.4248  143.8210  164.8501 C.ar    1  UNL1        0.0325
     26 C         138.5487  144.7794  165.1113 C.ar    1  UNL1        0.1592
     27 F         138.4958  145.6909  166.3015 F       1  UNL1       -0.2025
     28 C         139.7255  144.8265  164.1823 C.ar    1  UNL1        0.1280
     29 N         139.7784  143.9151  162.9922 N.ar    1  UNL1       -0.2438
     30 C         138.7860  142.6211  160.1580 C.3     1  UNL1        0.1658
     31 O         139.3132  144.0105  159.9530 O.3     1  UNL1       -0.3796
     32 H         138.7079  144.6494  160.3608 H       1  UNL1        0.2105
@<TRIPOS>BOND
     1    20    21    1
     2    21    19    1
     3    19    13    1
     4    13    14   ar
     5    14    15   ar
     6    15    11    1
     7    11     1    1
     8     1     2   ar
     9     2     3   ar
    10     3     4   ar
    11     4     5   ar
    12     5     6   ar
    13     6     7    1
    14     4     8   ar
    15     8     9   ar
    16     9    10   ar
    17    10    22    1
    18    22    30    1
    19    30    31    1
    20    22    23    1
    21    23    24   ar
    22    24    25   ar
    23    25    26   ar
    24    26    27    1
    25    26    28   ar
    26    28    29   ar
    27    15    16   ar
    28    16    17   ar
    29    17    13   ar
    30     6     1   ar
    31    29    23   ar
    32    10     3   ar
    33    11    12    1
    34    31    32    1
    35    17    18    1
@<TRIPOS>MOLECULE
*****
 32 35 0 0 0
SMALL
GASTEIGER

@<TRIPOS>ATOM
      1 C         141.8712  139.5396  164.8290 C.ar    1  UNL1        0.1626
      2 N         141.7541  140.7203  163.9113 N.ar    1  UNL1       -0.2096
      3 C         142.9839  141.3086  163.2854 C.ar    1  UNL1        0.1646
      4 C         144.3306  140.7160  163.5772 C.ar    1  UNL1        0.1194
      5 C         144.4477  139.5353  164.4949 C.ar    1  UNL1        0.0547
      6 C         143.2179  138.9471  165.1208 C.ar    1  UNL1        0.1732
      7 F         143.3349  137.7663  166.0385 F       1  UNL1       -0.2012
      8 N         145.3578  141.5042  162.8198 N.ar    1  UNL1       -0.2222
      9 C         144.6458  142.5839  162.0600 C.ar    1  UNL1        0.1800
     10 N         143.1787  142.4630  162.3477 N.ar    1  UNL1       -0.2884
     11 N         140.6414  138.9514  165.4549 N.pl3   1  UNL1       -0.2800
     12 H         140.1324  138.2551  164.9802 H       1  UNL1        0.1551
     13 C         140.1226  140.5446  168.9560 C.ar    1  UNL1        0.2215
     14 C         140.9466  140.3378  167.7198 C.ar    1  UNL1        0.0932
     15 C         140.1872  139.4241  166.8040 C.ar    1  UNL1        0.1575
     16 N         138.8939  139.0663  167.4743 N.ar    1  UNL1       -0.1550
     17 N         138.8540  139.7588  168.8043 N.ar    1  UNL1       -0.2446
     18 H         138.1234  139.7067  169.4621 H       1  UNL1        0.1920
     19 O         140.5008  141.3890  170.1367 O.3     1  UNL1       -0.4605
     20 C         140.5035  143.9713  169.8503 C.3     1  UNL1        0.0512
     21 C         141.2496  142.6724  169.9317 C.3     1  UNL1        0.2072
     22 C         142.0964  143.3421  161.7948 C.3     1  UNL1        0.1575
     23 C         140.8674  143.6205  162.6085 C.ar    1  UNL1        0.0823
     24 C         140.9746  144.3971  163.8873 C.ar    1  UNL1        0.0190
     25 C         139.7456  144.6755  164.7010 C.ar    1  UNL1        0.0325
     26 C         138.4094  144.1773  164.2357 C.ar    1  UNL1        0.1592
     27 F         137.1804  144.4557  165.0494 F       1  UNL1       -0.2025
     28 C         138.3022  143.4008  162.9569 C.ar    1  UNL1        0.1280
     29 N         139.5312  143.1224  162.1433 N.ar    1  UNL1       -0.2438
     30 C         142.2431  143.9429  160.4282 C.3     1  UNL1        0.1658
     31 O         141.8494  145.3707  160.1903 O.3     1  UNL1       -0.3796
     32 H         140.8911  145.4656  160.3073 H       1  UNL1        0.2105
@<TRIPOS>BOND
     1    20    21    1
     2    21    19    1
     3    19    13    1
     4    13    14   ar
     5    14    15   ar
     6    15    11    1
     7    11     1    1
     8     1     2   ar
     9     2     3   ar
    10     3     4   ar
    11     4     5   ar
    12     5     6   ar
    13     6     7    1
    14     4     8   ar
    15     8     9   ar
    16     9    10   ar
    17    10    22    1
    18    22    30    1
    19    30    31    1
    20    22    23    1
    21    23    24   ar
    22    24    25   ar
    23    25    26   ar
    24    26    27    1
    25    26    28   ar
    26    28    29   ar
    27    15    16   ar
    28    16    17   ar
    29    17    13   ar
    30     6     1   ar
    31    29    23   ar
    32    10     3   ar
    33    11    12    1
    34    31    32    1
    35    17    18    1
@<TRIPOS>MOLECULE
*****
 32 35 0 0 0
SMALL
GASTEIGER

@<TRIPOS>ATOM
      1 C         142.5049  143.6191  162.8273 C.ar    1  UNL1        0.1626
      2 N         142.1714  142.1608  162.9383 N.ar    1  UNL1       -0.2096
      3 C         143.1963  141.1942  163.4533 C.ar    1  UNL1        0.1646
      4 C         144.5547  141.6858  163.8572 C.ar    1  UNL1        0.1194
      5 C         144.8882  143.1440  163.7461 C.ar    1  UNL1        0.0547
      6 C         143.8632  144.1106  163.2311 C.ar    1  UNL1        0.1732
      7 F         144.1967  145.5690  163.1200 F       1  UNL1       -0.2012
      8 N         145.3541  140.5063  164.3258 N.ar    1  UNL1       -0.2222
      9 C         144.4898  139.2857  164.2115 C.ar    1  UNL1        0.1800
     10 N         143.1562  139.7108  163.6723 N.ar    1  UNL1       -0.2884
     11 N         141.4799  144.5857  162.3123 N.pl3   1  UNL1       -0.2800
     12 H         141.7631  145.4532  161.9429 H       1  UNL1        0.1551
     13 C         137.9611  142.9593  162.5089 C.ar    1  UNL1        0.2215
     14 C         139.4571  142.8495  162.5100 C.ar    1  UNL1        0.0932
     15 C         140.0234  144.2304  162.3600 C.ar    1  UNL1        0.1575
     16 N         138.8773  145.1937  162.2663 N.ar    1  UNL1       -0.1550
     17 N         137.6028  144.4080  162.3583 N.ar    1  UNL1       -0.2446
     18 H         136.6912  144.7783  162.3255 H       1  UNL1        0.1920
     19 O         136.9934  141.8203  162.6360 O.3     1  UNL1       -0.4605
     20 C         137.7751  139.4096  162.0635 C.3     1  UNL1        0.0512
     21 C         137.4768  140.4715  163.0801 C.3     1  UNL1        0.2072
     22 C         141.9877  138.8106  163.3999 C.3     1  UNL1        0.1575
     23 C         140.8229  138.7870  164.3447 C.ar    1  UNL1        0.0823
     24 C         140.5855  139.9421  165.2716 C.ar    1  UNL1        0.0190
     25 C         139.4207  139.9185  166.2164 C.ar    1  UNL1        0.0325
     26 C         138.4933  138.7396  166.2343 C.ar    1  UNL1        0.1592
     27 F         137.3285  138.7159  167.1792 F       1  UNL1       -0.2025
     28 C         138.7308  137.5844  165.3074 C.ar    1  UNL1        0.1280
     29 N         139.8955  137.6081  164.3626 N.ar    1  UNL1       -0.2438
     30 C         141.9839  137.9341  162.1827 C.3     1  UNL1        0.1658
     31 O         140.6843  137.5457  161.5421 O.3     1  UNL1       -0.3796
     32 H         140.1802  136.9820  162.1495 H       1  UNL1        0.2105
@<TRIPOS>BOND
     1    20    21    1
     2    21    19    1
     3    19    13    1
     4    13    14   ar
     5    14    15   ar
     6    15    11    1
     7    11     1    1
     8     1     2   ar
     9     2     3   ar
    10     3     4   ar
    11     4     5   ar
    12     5     6   ar
    13     6     7    1
    14     4     8   ar
    15     8     9   ar
    16     9    10   ar
    17    10    22    1
    18    22    30    1
    19    30    31    1
    20    22    23    1
    21    23    24   ar
    22    24    25   ar
    23    25    26   ar
    24    26    27    1
    25    26    28   ar
    26    28    29   ar
    27    15    16   ar
    28    16    17   ar
    29    17    13   ar
    30     6     1   ar
    31    29    23   ar
    32    10     3   ar
    33    11    12    1
    34    31    32    1
    35    17    18    1
@<TRIPOS>MOLECULE
*****
 32 35 0 0 0
SMALL
GASTEIGER

@<TRIPOS>ATOM
      1 C         139.1031  142.8638  162.4321 C.ar    1  UNL1        0.1626
      2 N         140.5204  142.3852  162.5419 N.ar    1  UNL1       -0.2096
      3 C         141.5909  143.3164  163.0286 C.ar    1  UNL1        0.1646
      4 C         141.2441  144.7262  163.4054 C.ar    1  UNL1        0.1194
      5 C         139.8268  145.2049  163.2956 C.ar    1  UNL1        0.0547
      6 C         138.7563  144.2736  162.8089 C.ar    1  UNL1        0.1732
      7 F         137.3389  144.7522  162.6991 F       1  UNL1       -0.2012
      8 N         142.5030  145.4104  163.8494 N.ar    1  UNL1       -0.2222
      9 C         143.6278  144.4234  163.7469 C.ar    1  UNL1        0.1800
     10 N         143.0642  143.1292  163.2396 N.ar    1  UNL1       -0.2884
     11 N         138.0326  141.9325  161.9454 N.pl3   1  UNL1       -0.2800
     12 H         137.2812  142.2813  161.4135 H       1  UNL1        0.1551
     13 C         138.3847  138.3850  163.4807 C.ar    1  UNL1        0.2215
     14 C         138.4147  139.8788  163.6133 C.ar    1  UNL1        0.0932
     15 C         138.1070  140.4698  162.2693 C.ar    1  UNL1        0.1575
     16 N         137.8868  139.3411  161.3062 N.ar    1  UNL1       -0.1550
     17 N         138.0585  138.0527  162.0549 N.ar    1  UNL1       -0.2446
     18 H         137.9721  137.1478  161.6768 H       1  UNL1        0.1920
     19 O         138.6367  137.3971  164.5809 O.3     1  UNL1       -0.4605
     20 C         137.6689  138.3329  166.8030 C.3     1  UNL1        0.0512
     21 C         138.8422  137.8768  165.9872 C.3     1  UNL1        0.2072
     22 C         143.8379  141.8691  162.9876 C.3     1  UNL1        0.1575
     23 C         143.2563  140.5418  163.3748 C.ar    1  UNL1        0.0823
     24 C         142.9852  140.2339  164.8175 C.ar    1  UNL1        0.0190
     25 C         142.4036  138.9065  165.2048 C.ar    1  UNL1        0.0325
     26 C         142.0932  137.8871  164.1490 C.ar    1  UNL1        0.1592
     27 F         141.5116  136.5597  164.5362 F       1  UNL1       -0.2025
     28 C         142.3643  138.1951  162.7062 C.ar    1  UNL1        0.1280
     29 N         142.9459  139.5224  162.3191 N.ar    1  UNL1       -0.2438
     30 C         145.1932  141.9364  162.3485 C.3     1  UNL1        0.1658
     31 O         146.4275  141.8245  163.1937 O.3     1  UNL1       -0.3796
     32 H         146.4872  142.5932  163.7822 H       1  UNL1        0.2105
@<TRIPOS>BOND
     1    20    21    1
     2    21    19    1
     3    19    13    1
     4    13    14   ar
     5    14    15   ar
     6    15    11    1
     7    11     1    1
     8     1     2   ar
     9     2     3   ar
    10     3     4   ar
    11     4     5   ar
    12     5     6   ar
    13     6     7    1
    14     4     8   ar
    15     8     9   ar
    16     9    10   ar
    17    10    22    1
    18    22    30    1
    19    30    31    1
    20    22    23    1
    21    23    24   ar
    22    24    25   ar
    23    25    26   ar
    24    26    27    1
    25    26    28   ar
    26    28    29   ar
    27    15    16   ar
    28    16    17   ar
    29    17    13   ar
    30     6     1   ar
    31    29    23   ar
    32    10     3   ar
    33    11    12    1
    34    31    32    1
    35    17    18    1
@<TRIPOS>MOLECULE
*****
 32 35 0 0 0
SMALL
GASTEIGER

@<TRIPOS>ATOM
      1 C         143.0733  139.7611  164.3345 C.ar    1  UNL1        0.1626
      2 N         142.2051  140.6470  163.4910 N.ar    1  UNL1       -0.2096
      3 C         142.8291  141.5892  162.5047 C.ar    1  UNL1        0.1646
      4 C         144.3212  141.6455  162.3618 C.ar    1  UNL1        0.1194
      5 C         145.1893  140.7597  163.2053 C.ar    1  UNL1        0.0547
      6 C         144.5653  139.8174  164.1917 C.ar    1  UNL1        0.1732
      7 F         145.4335  138.9315  165.0352 F       1  UNL1       -0.2012
      8 N         144.6482  142.6667  161.3129 N.ar    1  UNL1       -0.2222
      9 C         143.3582  143.2415  160.8075 C.ar    1  UNL1        0.1800
     10 N         142.2339  142.5756  161.5441 N.ar    1  UNL1       -0.2884
     11 N         142.4492  138.8189  165.3209 N.pl3   1  UNL1       -0.2800
     12 H         142.1059  137.9468  165.0193 H       1  UNL1        0.1551
     13 C         141.5948  140.2248  168.8364 C.ar    1  UNL1        0.2215
     14 C         141.3209  140.1198  167.3653 C.ar    1  UNL1        0.0932
     15 C         142.3484  139.2053  166.7667 C.ar    1  UNL1        0.1575
     16 N         143.2571  138.7452  167.8678 N.ar    1  UNL1       -0.1550
     17 N         142.7914  139.3753  169.1469 N.ar    1  UNL1       -0.2446
     18 H         143.1994  139.2528  170.0344 H       1  UNL1        0.1920
     19 O         140.8098  141.0368  169.8235 O.3     1  UNL1       -0.4605
     20 C         140.4966  143.6103  169.6514 C.3     1  UNL1        0.0512
     21 C         141.2544  142.4259  170.1741 C.3     1  UNL1        0.2072
     22 C         140.7712  142.8482  161.3534 C.3     1  UNL1        0.1575
     23 C         139.9601  143.4123  162.4821 C.ar    1  UNL1        0.0823
     24 C         140.6361  144.1702  163.5859 C.ar    1  UNL1        0.0190
     25 C         139.8251  144.7343  164.7146 C.ar    1  UNL1        0.0325
     26 C         138.3378  144.5403  164.7394 C.ar    1  UNL1        0.1592
     27 F         137.5266  145.1043  165.8681 F       1  UNL1       -0.2025
     28 C         137.6618  143.7823  163.6356 C.ar    1  UNL1        0.1280
     29 N         138.4729  143.2183  162.5070 N.ar    1  UNL1       -0.2438
     30 C         140.1198  142.5568  160.0341 C.3     1  UNL1        0.1658
     31 O         138.9044  143.3276  159.6112 O.3     1  UNL1       -0.3796
     32 H         138.1667  143.1200  160.2059 H       1  UNL1        0.2105
@<TRIPOS>BOND
     1    20    21    1
     2    21    19    1
     3    19    13    1
     4    13    14   ar
     5    14    15   ar
     6    15    11    1
     7    11     1    1
     8     1     2   ar
     9     2     3   ar
    10     3     4   ar
    11     4     5   ar
    12     5     6   ar
    13     6     7    1
    14     4     8   ar
    15     8     9   ar
    16     9    10   ar
    17    10    22    1
    18    22    30    1
    19    30    31    1
    20    22    23    1
    21    23    24   ar
    22    24    25   ar
    23    25    26   ar
    24    26    27    1
    25    26    28   ar
    26    28    29   ar
    27    15    16   ar
    28    16    17   ar
    29    17    13   ar
    30     6     1   ar
    31    29    23   ar
    32    10     3   ar
    33    11    12    1
    34    31    32    1
    35    17    18    1
