@<TRIPOS>MOLECULE
*****
 42 45 0 0 0
SMALL
GASTEIGER

@<TRIPOS>ATOM
      1 C         140.7222  140.5764  163.1399 C.3     1  UNL1        0.0799
      2 C         140.4180  140.5118  164.6074 C.ar    1  UNL1        0.0374
      3 C         140.6421  141.7158  165.4735 C.ar    1  UNL1        0.0023
      4 C         140.3379  141.6512  166.9409 C.ar    1  UNL1        0.0181
      5 C         140.5620  142.8552  167.8070 C.ar    1  UNL1        0.0082
      6 C         140.2578  142.7906  169.2745 C.ar    1  UNL1        0.0347
      7 BR        140.4820  143.9946  170.1406 Br      1  UNL1       -0.0490
      8 C         139.7295  141.5220  169.8757 C.ar    1  UNL1        0.0082
      9 C         139.5054  140.3180  169.0096 C.ar    1  UNL1        0.0197
     10 C         139.8096  140.3826  167.5422 C.ar    1  UNL1        0.0844
     11 N         139.5854  139.1786  166.6761 N.ar    1  UNL1       -0.2119
     12 C         139.8897  139.2432  165.2087 C.ar    1  UNL1        0.2211
     13 O         139.6655  138.0392  164.3425 O.3     1  UNL1       -0.4563
     14 C         140.6790  136.9336  164.3183 C.3     1  UNL1        0.2542
     15 C         141.8624  139.7826  162.5747 C.ar    1  UNL1        0.0148
     16 C         143.1986  139.7998  163.2560 C.ar    1  UNL1       -0.0014
     17 C         144.3390  139.0059  162.6908 C.ar    1  UNL1        0.0029
     18 C         144.1431  138.1949  161.4442 C.ar    1  UNL1        0.0392
     19 C         142.8068  138.1777  160.7629 C.ar    1  UNL1        0.1657
     20 C         141.6665  138.9716  161.3282 C.ar    1  UNL1        0.1702
     21 F         140.3303  138.9544  160.6469 F       1  UNL1       -0.2013
     22 O         142.6108  137.3667  159.5164 O.3     1  UNL1       -0.4692
     23 C         142.5934  138.0422  158.1771 C.3     1  UNL1        0.2526
     24 C         139.8860  141.4350  162.2378 C.3     1  UNL1        0.1162
     25 O         138.6872  140.5859  162.5409 O.3     1  UNL1       -0.3820
     26 H         137.9190  140.9263  162.0562 H       1  UNL1        0.2107
     27 C         142.9306  143.9341  162.7225 C.ar    1  UNL1        0.2271
     28 C         141.7317  143.0850  163.0255 C.ar    1  UNL1        0.0559
     29 C         141.0849  142.2840  161.9347 C.ar    1  UNL1        0.0117
     30 C         141.6368  142.3321  160.5408 C.ar    1  UNL1        0.0559
     31 C         142.8357  143.1812  160.2378 C.ar    1  UNL1        0.2272
     32 N         143.4825  143.9822  161.3286 N.ar    1  UNL1       -0.1767
     33 O         143.3876  143.2293  158.8438 O.3     1  UNL1       -0.4561
     34 C         142.6267  143.9334  157.7597 C.3     1  UNL1        0.2542
     35 O         143.5774  144.7352  163.8134 O.3     1  UNL1       -0.4602
     36 C         144.9130  142.7032  164.7285 C.3     1  UNL1        0.0512
     37 C         144.2642  144.0374  164.9498 C.3     1  UNL1        0.2072
     38 C         139.0499  142.2935  161.3356 C.3     1  UNL1        0.0491
     39 C         137.9588  143.1465  161.9116 C.3     1  UNL1        0.0750
     40 N         138.2874  144.1988  162.9288 N.3     1  UNL1       -0.2702
     41 C         139.0417  145.4288  162.5187 C.3     1  UNL1        0.0897
     42 C         137.8618  144.0212  164.3561 C.3     1  UNL1        0.0897
@<TRIPOS>BOND
     1    36    37    1
     2    37    35    1
     3    35    27    1
     4    27    28   ar
     5    28    29   ar
     6    29    24    1
     7    24    25    1
     8    24    38    1
     9    38    39    1
    10    39    40    1
    11    40    41    1
    12    40    42    1
    13    24     1    1
    14     1     2    1
    15     2     3   ar
    16     3     4   ar
    17     4     5   ar
    18     5     6   ar
    19     6     7    1
    20     6     8   ar
    21     8     9   ar
    22     9    10   ar
    23    10    11   ar
    24    11    12   ar
    25    12    13    1
    26    13    14    1
    27     1    15    1
    28    15    16   ar
    29    16    17   ar
    30    17    18   ar
    31    18    19   ar
    32    19    22    1
    33    22    23    1
    34    19    20   ar
    35    20    21    1
    36    29    30   ar
    37    30    31   ar
    38    31    33    1
    39    33    34    1
    40    31    32   ar
    41    32    27   ar
    42    12     2   ar
    43    20    15   ar
    44    10     4   ar
    45    25    26    1
@<TRIPOS>MOLECULE
*****
 42 45 0 0 0
SMALL
GASTEIGER

@<TRIPOS>ATOM
      1 C         141.3019  140.9063  162.5513 C.3     1  UNL1        0.0799
      2 C         141.3459  140.6651  164.0312 C.ar    1  UNL1        0.0374
      3 C         141.0116  141.7758  164.9823 C.ar    1  UNL1        0.0023
      4 C         141.0556  141.5346  166.4621 C.ar    1  UNL1        0.0181
      5 C         140.7213  142.6453  167.4133 C.ar    1  UNL1        0.0082
      6 C         140.7653  142.4041  168.8932 C.ar    1  UNL1        0.0347
      7 BR        140.4310  143.5147  169.8444 Br      1  UNL1       -0.0490
      8 C         141.1436  141.0523  169.4218 C.ar    1  UNL1        0.0082
      9 C         141.4778  139.9416  168.4707 C.ar    1  UNL1        0.0197
     10 C         141.4339  140.1828  166.9909 C.ar    1  UNL1        0.0844
     11 N         141.7681  139.0721  166.0397 N.ar    1  UNL1       -0.2119
     12 C         141.7241  139.3133  164.5598 C.ar    1  UNL1        0.2211
     13 O         142.0584  138.2027  163.6086 O.3     1  UNL1       -0.4563
     14 C         141.0322  137.1573  163.2859 C.3     1  UNL1        0.2542
     15 C         140.1109  140.4635  161.7543 C.ar    1  UNL1        0.0148
     16 C         138.7303  140.8615  162.1849 C.ar    1  UNL1       -0.0014
     17 C         137.5391  140.4186  161.3878 C.ar    1  UNL1        0.0029
     18 C         137.7287  139.5777  160.1603 C.ar    1  UNL1        0.0392
     19 C         139.1094  139.1796  159.7298 C.ar    1  UNL1        0.1657
     20 C         140.3004  139.6225  160.5267 C.ar    1  UNL1        0.1702
     21 F         141.6810  139.2244  160.0962 F       1  UNL1       -0.2013
     22 O         139.2990  138.3387  158.5022 O.3     1  UNL1       -0.4692
     23 C         139.8359  138.9567  157.2453 C.3     1  UNL1        0.2526
     24 C         142.4490  141.5904  161.8685 C.3     1  UNL1        0.1162
     25 O         143.3491  140.4483  162.2364 O.3     1  UNL1       -0.3820
     26 H         144.2425  140.6192  161.8995 H       1  UNL1        0.2107
     27 C         140.0095  144.7023  162.2079 C.ar    1  UNL1        0.2271
     28 C         140.9096  143.5602  162.5759 C.ar    1  UNL1        0.0559
     29 C         141.5488  142.7325  161.5006 C.ar    1  UNL1        0.0117
     30 C         141.2879  143.0469  160.0573 C.ar    1  UNL1        0.0559
     31 C         140.3878  144.1890  159.6894 C.ar    1  UNL1        0.2272
     32 N         139.7486  145.0167  160.7647 N.ar    1  UNL1       -0.1767
     33 O         140.1269  144.5034  158.2460 O.3     1  UNL1       -0.4561
     34 C         139.3446  143.5440  157.3990 C.3     1  UNL1        0.2542
     35 O         139.3702  145.5300  163.2833 O.3     1  UNL1       -0.4602
     36 C         137.8711  143.8718  164.6074 C.3     1  UNL1        0.0512
     37 C         138.9691  144.8934  164.5809 C.3     1  UNL1        0.2072
     38 C         143.5961  142.2745  161.1857 C.3     1  UNL1        0.0491
     39 C         144.5336  143.1372  161.9774 C.3     1  UNL1        0.0750
     40 N         144.8562  142.7856  163.3995 N.3     1  UNL1       -0.2702
     41 C         144.1863  143.5185  164.5237 C.3     1  UNL1        0.0897
     42 C         145.8487  141.7010  163.6973 C.3     1  UNL1        0.0897
@<TRIPOS>BOND
     1    36    37    1
     2    37    35    1
     3    35    27    1
     4    27    28   ar
     5    28    29   ar
     6    29    24    1
     7    24    25    1
     8    24    38    1
     9    38    39    1
    10    39    40    1
    11    40    41    1
    12    40    42    1
    13    24     1    1
    14     1     2    1
    15     2     3   ar
    16     3     4   ar
    17     4     5   ar
    18     5     6   ar
    19     6     7    1
    20     6     8   ar
    21     8     9   ar
    22     9    10   ar
    23    10    11   ar
    24    11    12   ar
    25    12    13    1
    26    13    14    1
    27     1    15    1
    28    15    16   ar
    29    16    17   ar
    30    17    18   ar
    31    18    19   ar
    32    19    22    1
    33    22    23    1
    34    19    20   ar
    35    20    21    1
    36    29    30   ar
    37    30    31   ar
    38    31    33    1
    39    33    34    1
    40    31    32   ar
    41    32    27   ar
    42    12     2   ar
    43    20    15   ar
    44    10     4   ar
    45    25    26    1
@<TRIPOS>MOLECULE
*****
 42 45 0 0 0
SMALL
GASTEIGER

@<TRIPOS>ATOM
      1 C         139.4861  140.5952  164.5653 C.3     1  UNL1        0.0799
      2 C         139.7221  140.5870  166.0466 C.ar    1  UNL1        0.0374
      3 C         140.7628  141.4863  166.6452 C.ar    1  UNL1        0.0023
      4 C         140.9988  141.4782  168.1265 C.ar    1  UNL1        0.0181
      5 C         142.0394  142.3776  168.7251 C.ar    1  UNL1        0.0082
      6 C         142.2754  142.3694  170.2064 C.ar    1  UNL1        0.0347
      7 BR        143.3160  143.2687  170.8050 Br      1  UNL1       -0.0490
      8 C         141.4708  141.4620  171.0891 C.ar    1  UNL1        0.0082
      9 C         140.4302  140.5627  170.4905 C.ar    1  UNL1        0.0197
     10 C         140.1941  140.5708  169.0092 C.ar    1  UNL1        0.0844
     11 N         139.1535  139.6715  168.4106 N.ar    1  UNL1       -0.2119
     12 C         138.9175  139.6796  166.9293 C.ar    1  UNL1        0.2211
     13 O         137.8769  138.7803  166.3307 O.3     1  UNL1       -0.4563
     14 C         137.2823  137.6726  167.1490 C.3     1  UNL1        0.2542
     15 C         138.9805  141.8372  163.8932 C.ar    1  UNL1        0.0148
     16 C         138.0900  142.7848  164.6407 C.ar    1  UNL1       -0.0014
     17 C         137.5843  144.0269  163.9686 C.ar    1  UNL1        0.0029
     18 C         137.9691  144.3212  162.5490 C.ar    1  UNL1        0.0392
     19 C         138.8597  143.3735  161.8015 C.ar    1  UNL1        0.1657
     20 C         139.3654  142.1315  162.4736 C.ar    1  UNL1        0.1702
     21 F         140.2559  141.1838  161.7261 F       1  UNL1       -0.2013
     22 O         139.2446  143.6678  160.3819 O.3     1  UNL1       -0.4692
     23 C         140.6209  144.1749  160.0677 C.3     1  UNL1        0.2526
     24 C         139.7558  139.3613  163.7561 C.3     1  UNL1        0.1162
     25 O         138.3251  139.3440  163.3056 O.3     1  UNL1       -0.3820
     26 H         138.1812  138.5880  162.7152 H       1  UNL1        0.2107
     27 C         143.5632  140.4234  164.1102 C.ar    1  UNL1        0.2271
     28 C         142.1325  140.4061  163.6598 C.ar    1  UNL1        0.0559
     29 C         141.1865  139.3786  164.2065 C.ar    1  UNL1        0.0117
     30 C         141.6711  138.3683  165.2037 C.ar    1  UNL1        0.0559
     31 C         143.1017  138.3856  165.6542 C.ar    1  UNL1        0.2272
     32 N         144.0478  139.4131  165.1074 N.ar    1  UNL1       -0.1767
     33 O         143.5863  137.3752  166.6514 O.3     1  UNL1       -0.4561
     34 C         145.0547  137.2342  166.9232 C.3     1  UNL1        0.2542
     35 O         144.5093  141.4510  163.5634 O.3     1  UNL1       -0.4602
     36 C         144.0982  143.1120  165.5184 C.3     1  UNL1        0.0512
     37 C         144.4778  142.8552  164.0901 C.3     1  UNL1        0.2072
     38 C         140.0255  138.1274  162.9469 C.3     1  UNL1        0.0491
     39 C         139.4592  137.9989  161.5639 C.3     1  UNL1        0.0750
     40 N         140.3065  138.3339  160.3724 N.3     1  UNL1       -0.2702
     41 C         139.6598  138.6338  159.0526 C.3     1  UNL1        0.0897
     42 C         141.8006  138.3690  160.5006 C.3     1  UNL1        0.0897
@<TRIPOS>BOND
     1    36    37    1
     2    37    35    1
     3    35    27    1
     4    27    28   ar
     5    28    29   ar
     6    29    24    1
     7    24    25    1
     8    24    38    1
     9    38    39    1
    10    39    40    1
    11    40    41    1
    12    40    42    1
    13    24     1    1
    14     1     2    1
    15     2     3   ar
    16     3     4   ar
    17     4     5   ar
    18     5     6   ar
    19     6     7    1
    20     6     8   ar
    21     8     9   ar
    22     9    10   ar
    23    10    11   ar
    24    11    12   ar
    25    12    13    1
    26    13    14    1
    27     1    15    1
    28    15    16   ar
    29    16    17   ar
    30    17    18   ar
    31    18    19   ar
    32    19    22    1
    33    22    23    1
    34    19    20   ar
    35    20    21    1
    36    29    30   ar
    37    30    31   ar
    38    31    33    1
    39    33    34    1
    40    31    32   ar
    41    32    27   ar
    42    12     2   ar
    43    20    15   ar
    44    10     4   ar
    45    25    26    1
@<TRIPOS>MOLECULE
*****
 42 45 0 0 0
SMALL
GASTEIGER

@<TRIPOS>ATOM
      1 C         141.2787  140.9234  162.5925 C.3     1  UNL1        0.0799
      2 C         141.3282  140.6736  164.0708 C.ar    1  UNL1        0.0374
      3 C         140.9960  141.7782  165.0296 C.ar    1  UNL1        0.0023
      4 C         141.0455  141.5285  166.5078 C.ar    1  UNL1        0.0181
      5 C         140.7133  142.6331  167.4667 C.ar    1  UNL1        0.0082
      6 C         140.7628  142.3833  168.9450 C.ar    1  UNL1        0.0347
      7 BR        140.4306  143.4880  169.9038 Br      1  UNL1       -0.0490
      8 C         141.1444  141.0288  169.4643 C.ar    1  UNL1        0.0082
      9 C         141.4766  139.9242  168.5055 C.ar    1  UNL1        0.0197
     10 C         141.4272  140.1739  167.0273 C.ar    1  UNL1        0.0844
     11 N         141.7593  139.0693  166.0685 N.ar    1  UNL1       -0.2119
     12 C         141.7099  139.3191  164.5902 C.ar    1  UNL1        0.2211
     13 O         142.0420  138.2144  163.6313 O.3     1  UNL1       -0.4563
     14 C         141.0168  137.1682  163.3083 C.3     1  UNL1        0.2542
     15 C         140.0949  140.4648  161.7936 C.ar    1  UNL1        0.0148
     16 C         138.7082  140.8396  162.2253 C.ar    1  UNL1       -0.0014
     17 C         137.5243  140.3810  161.4264 C.ar    1  UNL1        0.0029
     18 C         137.7273  139.5478  160.1958 C.ar    1  UNL1        0.0392
     19 C         139.1141  139.1730  159.7641 C.ar    1  UNL1        0.1657
     20 C         140.2979  139.6316  160.5630 C.ar    1  UNL1        0.1702
     21 F         141.6847  139.2568  160.1313 F       1  UNL1       -0.2013
     22 O         139.3171  138.3397  158.5335 O.3     1  UNL1       -0.4692
     23 C         139.7854  138.9822  157.2615 C.3     1  UNL1        0.2526
     24 C         142.4131  141.6318  161.9133 C.3     1  UNL1        0.1162
     25 O         143.3290  140.4947  162.2570 O.3     1  UNL1       -0.3820
     26 H         144.2180  140.6814  161.9169 H       1  UNL1        0.2107
     27 C         140.3071  144.2403  159.7896 C.ar    1  UNL1        0.2271
     28 C         141.2230  143.1032  160.1333 C.ar    1  UNL1        0.0559
     29 C         141.4972  142.7689  161.5696 C.ar    1  UNL1        0.0117
     30 C         140.8555  143.5716  162.6621 C.ar    1  UNL1        0.0559
     31 C         139.9396  144.7087  162.3184 C.ar    1  UNL1        0.2272
     32 N         139.6654  145.0431  160.8822 N.ar    1  UNL1       -0.1767
     33 O         139.2980  145.5115  163.4111 O.3     1  UNL1       -0.4561
     34 C         138.9074  144.8483  164.6986 C.3     1  UNL1        0.2542
     35 O         140.0329  144.5746  158.3532 O.3     1  UNL1       -0.4602
     36 C         142.0736  145.9011  157.4445 C.3     1  UNL1        0.0512
     37 C         140.6074  145.8224  157.7507 C.3     1  UNL1        0.2072
     38 C         143.5475  142.3401  161.2340 C.3     1  UNL1        0.0491
     39 C         144.4979  143.1771  162.0378 C.3     1  UNL1        0.0750
     40 N         144.8411  142.7816  163.4434 N.3     1  UNL1       -0.2702
     41 C         144.1657  143.4584  164.5991 C.3     1  UNL1        0.0897
     42 C         145.8598  141.7093  163.6933 C.3     1  UNL1        0.0897
@<TRIPOS>BOND
     1    36    37    1
     2    37    35    1
     3    35    27    1
     4    27    28   ar
     5    28    29   ar
     6    29    24    1
     7    24    25    1
     8    24    38    1
     9    38    39    1
    10    39    40    1
    11    40    41    1
    12    40    42    1
    13    24     1    1
    14     1     2    1
    15     2     3   ar
    16     3     4   ar
    17     4     5   ar
    18     5     6   ar
    19     6     7    1
    20     6     8   ar
    21     8     9   ar
    22     9    10   ar
    23    10    11   ar
    24    11    12   ar
    25    12    13    1
    26    13    14    1
    27     1    15    1
    28    15    16   ar
    29    16    17   ar
    30    17    18   ar
    31    18    19   ar
    32    19    22    1
    33    22    23    1
    34    19    20   ar
    35    20    21    1
    36    29    30   ar
    37    30    31   ar
    38    31    33    1
    39    33    34    1
    40    31    32   ar
    41    32    27   ar
    42    12     2   ar
    43    20    15   ar
    44    10     4   ar
    45    25    26    1
@<TRIPOS>MOLECULE
*****
 42 45 0 0 0
SMALL
GASTEIGER

@<TRIPOS>ATOM
      1 C         140.7499  140.6096  163.2143 C.3     1  UNL1        0.0799
      2 C         140.4295  140.5376  164.6780 C.ar    1  UNL1        0.0374
      3 C         140.6510  141.7350  165.5540 C.ar    1  UNL1        0.0023
      4 C         140.3306  141.6630  167.0175 C.ar    1  UNL1        0.0181
      5 C         140.5520  142.8604  167.8935 C.ar    1  UNL1        0.0082
      6 C         140.2316  142.7884  169.3572 C.ar    1  UNL1        0.0347
      7 BR        140.4531  143.9857  170.2332 Br      1  UNL1       -0.0490
      8 C         139.6898  141.5191  169.9448 C.ar    1  UNL1        0.0082
      9 C         139.4683  140.3218  169.0688 C.ar    1  UNL1        0.0197
     10 C         139.7887  140.3937  167.6052 C.ar    1  UNL1        0.0844
     11 N         139.5673  139.1964  166.7292 N.ar    1  UNL1       -0.2119
     12 C         139.8877  139.2684  165.2656 C.ar    1  UNL1        0.2211
     13 O         139.6663  138.0710  164.3896 O.3     1  UNL1       -0.4563
     14 C         140.6674  136.9540  164.3790 C.3     1  UNL1        0.2542
     15 C         141.8887  139.8090  162.6556 C.ar    1  UNL1        0.0148
     16 C         143.2204  139.8165  163.3458 C.ar    1  UNL1       -0.0014
     17 C         144.3593  139.0159  162.7871 C.ar    1  UNL1        0.0029
     18 C         144.1664  138.2079  161.5381 C.ar    1  UNL1        0.0392
     19 C         142.8346  138.2004  160.8479 C.ar    1  UNL1        0.1657
     20 C         141.6958  139.0010  161.4067 C.ar    1  UNL1        0.1702
     21 F         140.3641  138.9935  160.7164 F       1  UNL1       -0.2013
     22 O         142.6416  137.3924  159.5990 O.3     1  UNL1       -0.4692
     23 C         142.6591  138.0668  158.2592 C.3     1  UNL1        0.2526
     24 C         139.9315  141.4822  162.3094 C.3     1  UNL1        0.1162
     25 O         138.7320  140.6171  162.5601 O.3     1  UNL1       -0.3820
     26 H         137.9745  140.9626  162.0624 H       1  UNL1        0.2107
     27 C         142.8685  143.3637  160.4162 C.ar    1  UNL1        0.2271
     28 C         141.6690  142.4986  160.6668 C.ar    1  UNL1        0.0559
     29 C         141.1310  142.3473  162.0588 C.ar    1  UNL1        0.0117
     30 C         141.7925  143.0612  163.2002 C.ar    1  UNL1        0.0559
     31 C         142.9920  143.9264  162.9496 C.ar    1  UNL1        0.2272
     32 N         143.5300  144.0776  161.5576 N.ar    1  UNL1       -0.1767
     33 O         143.6535  144.6403  164.0910 O.3     1  UNL1       -0.4561
     34 C         144.4137  143.8614  165.1232 C.3     1  UNL1        0.2542
     35 O         143.4065  143.5149  159.0242 O.3     1  UNL1       -0.4602
     36 C         144.3085  142.4433  156.8360 C.3     1  UNL1        0.0512
     37 C         143.8706  142.3078  158.2643 C.3     1  UNL1        0.2072
     38 C         139.1131  142.3548  161.4046 C.3     1  UNL1        0.0491
     39 C         138.0208  143.2104  161.9744 C.3     1  UNL1        0.0750
     40 N         138.3474  144.2686  162.9860 N.3     1  UNL1       -0.2702
     41 C         137.8961  144.1117  164.4079 C.3     1  UNL1        0.0897
     42 C         139.1253  145.4837  162.5759 C.3     1  UNL1        0.0897
@<TRIPOS>BOND
     1    36    37    1
     2    37    35    1
     3    35    27    1
     4    27    28   ar
     5    28    29   ar
     6    29    24    1
     7    24    25    1
     8    24    38    1
     9    38    39    1
    10    39    40    1
    11    40    41    1
    12    40    42    1
    13    24     1    1
    14     1     2    1
    15     2     3   ar
    16     3     4   ar
    17     4     5   ar
    18     5     6   ar
    19     6     7    1
    20     6     8   ar
    21     8     9   ar
    22     9    10   ar
    23    10    11   ar
    24    11    12   ar
    25    12    13    1
    26    13    14    1
    27     1    15    1
    28    15    16   ar
    29    16    17   ar
    30    17    18   ar
    31    18    19   ar
    32    19    22    1
    33    22    23    1
    34    19    20   ar
    35    20    21    1
    36    29    30   ar
    37    30    31   ar
    38    31    33    1
    39    33    34    1
    40    31    32   ar
    41    32    27   ar
    42    12     2   ar
    43    20    15   ar
    44    10     4   ar
    45    25    26    1
@<TRIPOS>MOLECULE
*****
 42 45 0 0 0
SMALL
GASTEIGER

@<TRIPOS>ATOM
      1 C         140.3864  141.3302  162.5958 C.3     1  UNL1        0.0799
      2 C         140.3649  141.8119  164.0162 C.ar    1  UNL1        0.0374
      3 C         141.4993  141.4774  164.9389 C.ar    1  UNL1        0.0023
      4 C         141.4779  141.9591  166.3592 C.ar    1  UNL1        0.0181
      5 C         142.6122  141.6245  167.2819 C.ar    1  UNL1        0.0082
      6 C         142.5907  142.1063  168.7023 C.ar    1  UNL1        0.0347
      7 BR        143.7251  141.7717  169.6250 Br      1  UNL1       -0.0490
      8 C         141.4349  142.9226  169.2000 C.ar    1  UNL1        0.0082
      9 C         140.3006  143.2572  168.2773 C.ar    1  UNL1        0.0197
     10 C         140.3220  142.7755  166.8570 C.ar    1  UNL1        0.0844
     11 N         139.1877  143.1100  165.9343 N.ar    1  UNL1       -0.2119
     12 C         139.2092  142.6283  164.5139 C.ar    1  UNL1        0.2211
     13 O         138.0748  142.9628  163.5912 O.3     1  UNL1       -0.4563
     14 C         137.8990  144.3685  163.0978 C.3     1  UNL1        0.2542
     15 C         140.8617  142.2402  161.5023 C.ar    1  UNL1        0.0148
     16 C         142.2823  142.7216  161.4916 C.ar    1  UNL1       -0.0014
     17 C         142.7576  143.6318  160.3981 C.ar    1  UNL1        0.0029
     18 C         141.8123  144.0604  159.3152 C.ar    1  UNL1        0.0392
     19 C         140.3917  143.5789  159.3258 C.ar    1  UNL1        0.1657
     20 C         139.9164  142.6688  160.4194 C.ar    1  UNL1        0.1702
     21 F         138.4958  142.1874  160.4300 F       1  UNL1       -0.2013
     22 O         139.4464  144.0075  158.2429 O.3     1  UNL1       -0.4692
     23 C         138.9265  143.0011  157.2595 C.3     1  UNL1        0.2526
     24 C         139.9326  139.9383  162.2690 C.3     1  UNL1        0.1162
     25 O         138.5335  140.3001  162.6711 O.3     1  UNL1       -0.3820
     26 H         137.9553  139.5295  162.5585 H       1  UNL1        0.2107
     27 C         143.8203  139.1737  162.4950 C.ar    1  UNL1        0.2271
     28 C         142.4212  139.5354  162.8971 C.ar    1  UNL1        0.0559
     29 C         141.3317  139.5765  161.8669 C.ar    1  UNL1        0.0117
     30 C         141.6413  139.2559  160.4347 C.ar    1  UNL1        0.0559
     31 C         143.0404  138.8941  160.0326 C.ar    1  UNL1        0.2272
     32 N         144.1299  138.8530  161.0628 N.ar    1  UNL1       -0.1767
     33 O         143.3499  138.5734  158.6003 O.3     1  UNL1       -0.4561
     34 C         142.2367  138.2669  157.6429 C.3     1  UNL1        0.2542
     35 O         144.9099  139.1326  163.5252 O.3     1  UNL1       -0.4602
     36 C         145.5882  141.6378  163.6424 C.3     1  UNL1        0.0512
     37 C         145.2249  140.3567  164.3328 C.3     1  UNL1        0.2072
     38 C         139.4788  138.5464  161.9422 C.3     1  UNL1        0.0491
     39 C         138.8378  137.6987  163.0007 C.3     1  UNL1        0.0750
     40 N         139.3582  137.7341  164.4071 N.3     1  UNL1       -0.2702
     41 C         140.7196  137.1860  164.7171 C.3     1  UNL1        0.0897
     42 C         138.5171  138.3176  165.5035 C.3     1  UNL1        0.0897
@<TRIPOS>BOND
     1    36    37    1
     2    37    35    1
     3    35    27    1
     4    27    28   ar
     5    28    29   ar
     6    29    24    1
     7    24    25    1
     8    24    38    1
     9    38    39    1
    10    39    40    1
    11    40    41    1
    12    40    42    1
    13    24     1    1
    14     1     2    1
    15     2     3   ar
    16     3     4   ar
    17     4     5   ar
    18     5     6   ar
    19     6     7    1
    20     6     8   ar
    21     8     9   ar
    22     9    10   ar
    23    10    11   ar
    24    11    12   ar
    25    12    13    1
    26    13    14    1
    27     1    15    1
    28    15    16   ar
    29    16    17   ar
    30    17    18   ar
    31    18    19   ar
    32    19    22    1
    33    22    23    1
    34    19    20   ar
    35    20    21    1
    36    29    30   ar
    37    30    31   ar
    38    31    33    1
    39    33    34    1
    40    31    32   ar
    41    32    27   ar
    42    12     2   ar
    43    20    15   ar
    44    10     4   ar
    45    25    26    1
@<TRIPOS>MOLECULE
*****
 42 45 0 0 0
SMALL
GASTEIGER

@<TRIPOS>ATOM
      1 C         140.5175  141.2790  161.6784 C.3     1  UNL1        0.0799
      2 C         140.2279  140.8969  163.0998 C.ar    1  UNL1        0.0374
      3 C         141.2425  141.1679  164.1709 C.ar    1  UNL1        0.0023
      4 C         140.9530  140.7859  165.5922 C.ar    1  UNL1        0.0181
      5 C         141.9676  141.0570  166.6632 C.ar    1  UNL1        0.0082
      6 C         141.6780  140.6749  168.0846 C.ar    1  UNL1        0.0347
      7 BR        142.6926  140.9459  169.1557 Br      1  UNL1       -0.0490
      8 C         140.3739  140.0218  168.4349 C.ar    1  UNL1        0.0082
      9 C         139.3593  139.7507  167.3638 C.ar    1  UNL1        0.0197
     10 C         139.6488  140.1328  165.9425 C.ar    1  UNL1        0.0844
     11 N         138.6342  139.8617  164.8715 N.ar    1  UNL1       -0.2119
     12 C         138.9238  140.2438  163.4501 C.ar    1  UNL1        0.2211
     13 O         137.9092  139.9727  162.3790 O.3     1  UNL1       -0.4563
     14 C         137.7223  138.5783  161.8587 C.3     1  UNL1        0.2542
     15 C         140.8448  140.2191  160.6687 C.ar    1  UNL1        0.0148
     16 C         142.0847  139.3900  160.8269 C.ar    1  UNL1       -0.0014
     17 C         142.4121  138.3301  159.8171 C.ar    1  UNL1        0.0029
     18 C         141.4995  138.0994  158.6492 C.ar    1  UNL1        0.0392
     19 C         140.2595  138.9286  158.4911 C.ar    1  UNL1        0.1657
     20 C         139.9322  139.9884  159.5009 C.ar    1  UNL1        0.1702
     21 F         138.6922  140.8176  159.3427 F       1  UNL1       -0.2013
     22 O         139.3468  138.6979  157.3233 O.3     1  UNL1       -0.4692
     23 C         139.5901  137.5424  156.3981 C.3     1  UNL1        0.2526
     24 C         140.4797  142.7209  161.2669 C.3     1  UNL1        0.1162
     25 O         139.0195  142.7792  161.6049 O.3     1  UNL1       -0.3820
     26 H         138.6817  143.6709  161.4269 H       1  UNL1        0.2107
     27 C         144.4170  142.4465  161.6821 C.ar    1  UNL1        0.2271
     28 C         142.9568  142.5047  162.0202 C.ar    1  UNL1        0.0559
     29 C         141.9400  142.6626  160.9288 C.ar    1  UNL1        0.0117
     30 C         142.3835  142.7623  159.4994 C.ar    1  UNL1        0.0559
     31 C         143.8437  142.7040  159.1613 C.ar    1  UNL1        0.2272
     32 N         144.8605  142.5461  160.2527 N.ar    1  UNL1       -0.1767
     33 O         144.2871  142.8037  157.7317 O.3     1  UNL1       -0.4561
     34 C         145.5762  142.1695  157.3004 C.3     1  UNL1        0.2542
     35 O         145.4338  142.2885  162.7736 O.3     1  UNL1       -0.4602
     36 C         144.9249  140.0178  163.9288 C.3     1  UNL1        0.0512
     37 C         145.0943  141.5061  164.0074 C.3     1  UNL1        0.2072
     38 C         140.4420  144.1628  160.8553 C.3     1  UNL1        0.0491
     39 C         139.9511  145.2045  161.8165 C.3     1  UNL1        0.0750
     40 N         140.3512  145.1405  163.2607 N.3     1  UNL1       -0.2702
     41 C         139.3275  144.8198  164.3090 C.3     1  UNL1        0.0897
     42 C         141.7750  145.3971  163.6566 C.3     1  UNL1        0.0897
@<TRIPOS>BOND
     1    36    37    1
     2    37    35    1
     3    35    27    1
     4    27    28   ar
     5    28    29   ar
     6    29    24    1
     7    24    25    1
     8    24    38    1
     9    38    39    1
    10    39    40    1
    11    40    41    1
    12    40    42    1
    13    24     1    1
    14     1     2    1
    15     2     3   ar
    16     3     4   ar
    17     4     5   ar
    18     5     6   ar
    19     6     7    1
    20     6     8   ar
    21     8     9   ar
    22     9    10   ar
    23    10    11   ar
    24    11    12   ar
    25    12    13    1
    26    13    14    1
    27     1    15    1
    28    15    16   ar
    29    16    17   ar
    30    17    18   ar
    31    18    19   ar
    32    19    22    1
    33    22    23    1
    34    19    20   ar
    35    20    21    1
    36    29    30   ar
    37    30    31   ar
    38    31    33    1
    39    33    34    1
    40    31    32   ar
    41    32    27   ar
    42    12     2   ar
    43    20    15   ar
    44    10     4   ar
    45    25    26    1
@<TRIPOS>MOLECULE
*****
 42 45 0 0 0
SMALL
GASTEIGER

@<TRIPOS>ATOM
      1 C         141.7266  140.8436  162.9126 C.3     1  UNL1        0.0799
      2 C         141.9912  140.4729  164.3419 C.ar    1  UNL1        0.0374
      3 C         142.0675  141.5414  165.3919 C.ar    1  UNL1        0.0023
      4 C         142.3320  141.1708  166.8211 C.ar    1  UNL1        0.0181
      5 C         142.4083  142.2393  167.8712 C.ar    1  UNL1        0.0082
      6 C         142.6728  141.8686  169.3005 C.ar    1  UNL1        0.0347
      7 BR        142.7491  142.9371  170.3505 Br      1  UNL1       -0.0490
      8 C         142.8611  140.4296  169.6796 C.ar    1  UNL1        0.0082
      9 C         142.7849  139.3612  168.6295 C.ar    1  UNL1        0.0197
     10 C         142.5203  139.7318  167.2003 C.ar    1  UNL1        0.0844
     11 N         142.4441  138.6633  166.1503 N.ar    1  UNL1       -0.2119
     12 C         142.1795  139.0340  164.7210 C.ar    1  UNL1        0.2211
     13 O         142.1033  137.9655  163.6709 O.3     1  UNL1       -0.4563
     14 C         140.9917  136.9588  163.7046 C.3     1  UNL1        0.2542
     15 C         140.5155  140.3055  162.2101 C.ar    1  UNL1        0.0148
     16 C         139.1477  140.5637  162.7692 C.ar    1  UNL1       -0.0014
     17 C         137.9365  140.0256  162.0667 C.ar    1  UNL1        0.0029
     18 C         138.0931  139.2293  160.8052 C.ar    1  UNL1        0.0392
     19 C         139.4609  138.9712  160.2461 C.ar    1  UNL1        0.1657
     20 C         140.6721  139.5092  160.9486 C.ar    1  UNL1        0.1702
     21 F         142.0398  139.2511  160.3895 F       1  UNL1       -0.2013
     22 O         139.6175  138.1749  158.9846 O.3     1  UNL1       -0.4692
     23 C         140.1202  138.8382  157.7366 C.3     1  UNL1        0.2526
     24 C         142.6733  141.7523  162.1859 C.3     1  UNL1        0.1162
     25 O         143.7931  140.7864  162.4369 O.3     1  UNL1       -0.3820
     26 H         144.6117  141.1323  162.0479 H       1  UNL1        0.2107
     27 C         139.8935  144.5152  162.8097 C.ar    1  UNL1        0.2271
     28 C         141.0133  143.5493  163.0607 C.ar    1  UNL1        0.0559
     29 C         141.5534  142.7182  161.9349 C.ar    1  UNL1        0.0117
     30 C         140.9736  142.8529  160.5581 C.ar    1  UNL1        0.0559
     31 C         139.8538  143.8188  160.3071 C.ar    1  UNL1        0.2272
     32 N         139.3137  144.6499  161.4329 N.ar    1  UNL1       -0.1767
     33 O         139.2740  143.9535  158.9302 O.3     1  UNL1       -0.4561
     34 C         138.5287  142.8065  158.3147 C.3     1  UNL1        0.2542
     35 O         139.3534  145.3463  163.9356 O.3     1  UNL1       -0.4602
     36 C         137.7396  143.4600  164.7020 C.3     1  UNL1        0.0512
     37 C         138.5142  144.7087  165.0030 C.3     1  UNL1        0.2072
     38 C         143.6199  142.6610  161.4592 C.3     1  UNL1        0.0491
     39 C         144.5651  142.0987  160.4392 C.3     1  UNL1        0.0750
     40 N         144.1292  141.9558  159.0111 N.3     1  UNL1       -0.2702
     41 C         143.7143  143.1665  158.2288 C.3     1  UNL1        0.0897
     42 C         144.1083  140.6021  158.3652 C.3     1  UNL1        0.0897
@<TRIPOS>BOND
     1    36    37    1
     2    37    35    1
     3    35    27    1
     4    27    28   ar
     5    28    29   ar
     6    29    24    1
     7    24    25    1
     8    24    38    1
     9    38    39    1
    10    39    40    1
    11    40    41    1
    12    40    42    1
    13    24     1    1
    14     1     2    1
    15     2     3   ar
    16     3     4   ar
    17     4     5   ar
    18     5     6   ar
    19     6     7    1
    20     6     8   ar
    21     8     9   ar
    22     9    10   ar
    23    10    11   ar
    24    11    12   ar
    25    12    13    1
    26    13    14    1
    27     1    15    1
    28    15    16   ar
    29    16    17   ar
    30    17    18   ar
    31    18    19   ar
    32    19    22    1
    33    22    23    1
    34    19    20   ar
    35    20    21    1
    36    29    30   ar
    37    30    31   ar
    38    31    33    1
    39    33    34    1
    40    31    32   ar
    41    32    27   ar
    42    12     2   ar
    43    20    15   ar
    44    10     4   ar
    45    25    26    1
@<TRIPOS>MOLECULE
*****
 42 45 0 0 0
SMALL
GASTEIGER

@<TRIPOS>ATOM
      1 C         141.5644  142.0729  162.5527 C.3     1  UNL1        0.0799
      2 C         141.9833  142.1261  163.9921 C.ar    1  UNL1        0.0374
      3 C         140.9827  141.8505  165.0751 C.ar    1  UNL1        0.0023
      4 C         141.4015  141.9037  166.5144 C.ar    1  UNL1        0.0181
      5 C         140.4009  141.6281  167.5974 C.ar    1  UNL1        0.0082
      6 C         140.8198  141.6813  169.0368 C.ar    1  UNL1        0.0347
      7 BR        139.8192  141.4057  170.1197 Br      1  UNL1       -0.0490
      8 C         142.2393  142.0100  169.3931 C.ar    1  UNL1        0.0082
      9 C         143.2399  142.2856  168.3101 C.ar    1  UNL1        0.0197
     10 C         142.8210  142.2324  166.8708 C.ar    1  UNL1        0.0844
     11 N         143.8217  142.5080  165.7878 N.ar    1  UNL1       -0.2119
     12 C         143.4027  142.4548  164.3484 C.ar    1  UNL1        0.2211
     13 O         144.4033  142.7304  163.2655 O.3     1  UNL1       -0.4563
     14 C         145.5944  141.8339  163.0990 C.3     1  UNL1        0.2542
     15 C         142.3482  141.2506  161.5733 C.ar    1  UNL1        0.0148
     16 C         142.5465  139.7836  161.8153 C.ar    1  UNL1       -0.0014
     17 C         143.3305  138.9611  160.8359 C.ar    1  UNL1        0.0029
     18 C         143.9160  139.6058  159.6146 C.ar    1  UNL1        0.0392
     19 C         143.7177  141.0728  159.3727 C.ar    1  UNL1        0.1657
     20 C         142.9338  141.8952  160.3521 C.ar    1  UNL1        0.1702
     21 F         142.7355  143.3622  160.1101 F       1  UNL1       -0.2013
     22 O         144.3033  141.7175  158.1514 O.3     1  UNL1       -0.4692
     23 C         145.0288  140.8831  157.1377 C.3     1  UNL1        0.2526
     24 C         140.3615  142.8422  162.0928 C.3     1  UNL1        0.1162
     25 O         141.0241  144.1237  162.5034 O.3     1  UNL1       -0.3820
     26 H         140.4336  144.8689  162.3115 H       1  UNL1        0.2107
     27 C         138.7174  139.2362  162.3014 C.ar    1  UNL1        0.2271
     28 C         139.3799  140.5178  162.7120 C.ar    1  UNL1        0.0559
     29 C         139.6990  141.5606  161.6822 C.ar    1  UNL1        0.0117
     30 C         139.3554  141.3219  160.2417 C.ar    1  UNL1        0.0559
     31 C         138.6928  140.0403  159.8311 C.ar    1  UNL1        0.2272
     32 N         138.3738  138.9975  160.8610 N.ar    1  UNL1       -0.1767
     33 O         138.3493  139.8017  158.3906 O.3     1  UNL1       -0.4561
     34 C         137.6807  140.8800  157.5904 C.3     1  UNL1        0.2542
     35 O         138.3983  138.1933  163.3314 O.3     1  UNL1       -0.4602
     36 C         138.6105  137.3499  165.7795 C.3     1  UNL1        0.0512
     37 C         138.6535  138.4704  164.7833 C.3     1  UNL1        0.2072
     38 C         139.1587  143.6114  161.6329 C.3     1  UNL1        0.0491
     39 C         138.4171  144.4902  162.5960 C.3     1  UNL1        0.0750
     40 N         138.2571  144.0676  164.0263 N.3     1  UNL1       -0.2702
     41 C         137.4613  142.8411  164.3615 C.3     1  UNL1        0.0897
     42 C         138.8928  144.8716  165.1215 C.3     1  UNL1        0.0897
@<TRIPOS>BOND
     1    36    37    1
     2    37    35    1
     3    35    27    1
     4    27    28   ar
     5    28    29   ar
     6    29    24    1
     7    24    25    1
     8    24    38    1
     9    38    39    1
    10    39    40    1
    11    40    41    1
    12    40    42    1
    13    24     1    1
    14     1     2    1
    15     2     3   ar
    16     3     4   ar
    17     4     5   ar
    18     5     6   ar
    19     6     7    1
    20     6     8   ar
    21     8     9   ar
    22     9    10   ar
    23    10    11   ar
    24    11    12   ar
    25    12    13    1
    26    13    14    1
    27     1    15    1
    28    15    16   ar
    29    16    17   ar
    30    17    18   ar
    31    18    19   ar
    32    19    22    1
    33    22    23    1
    34    19    20   ar
    35    20    21    1
    36    29    30   ar
    37    30    31   ar
    38    31    33    1
    39    33    34    1
    40    31    32   ar
    41    32    27   ar
    42    12     2   ar
    43    20    15   ar
    44    10     4   ar
    45    25    26    1
