@<TRIPOS>MOLECULE
*****
 35 39 0 0 0
SMALL
GASTEIGER

@<TRIPOS>ATOM
      1 C         141.4467  142.3875  163.6351 C.ar    1  UNL1        0.1065
      2 N         142.8141  142.0814  163.0998 N.ar    1  UNL1       -0.1679
      3 N         143.0722  142.9944  161.9380 N.ar    1  UNL1       -0.2340
      4 C         141.8644  143.8648  161.7553 C.ar    1  UNL1        0.1653
      5 N         141.5495  144.9505  160.7693 N.ar    1  UNL1       -0.2050
      6 C         140.2299  145.6612  160.8322 C.ar    1  UNL1        0.2014
      7 N         139.2253  145.2861  161.8810 N.ar    1  UNL1       -0.2093
      8 C         139.5402  144.2004  162.8670 C.ar    1  UNL1        0.1316
      9 N         138.5356  143.8253  163.9158 N.pl3   1  UNL1       -0.3425
     10 C         140.8597  143.4898  162.8041 C.ar    1  UNL1        0.0860
     11 H         137.6695  144.2917  163.9571 H       1  UNL1        0.1437
     12 H         138.7422  143.1128  164.5629 H       1  UNL1        0.1437
     13 C         138.9342  140.2470  169.6647 C.ar    1  UNL1        0.1386
     14 C         139.7412  141.4924  169.8833 C.ar    1  UNL1        0.0369
     15 C         140.4051  142.1696  168.7211 C.ar    1  UNL1        0.0031
     16 C         140.2620  141.6014  167.3403 C.ar    1  UNL1        0.0002
     17 C         140.9259  142.2785  166.1781 C.ar    1  UNL1        0.0016
     18 C         140.7828  141.7103  164.7973 C.ar    1  UNL1        0.0195
     19 C         139.9758  140.4649  164.5787 C.ar    1  UNL1        0.0016
     20 C         139.3120  139.7877  165.7408 C.ar    1  UNL1        0.0001
     21 C         139.4551  140.3560  167.1217 C.ar    1  UNL1        0.0030
     22 C         138.7912  139.6788  168.2839 C.ar    1  UNL1        0.0369
     23 O         138.2704  139.5698  170.8269 O.3     1  UNL1       -0.4755
     24 C         136.2355  138.2031  171.6879 C.3     1  UNL1        0.0512
     25 C         136.8084  139.2397  170.7674 C.3     1  UNL1        0.2055
     26 C         144.3192  143.0306  161.1053 C.3     1  UNL1        0.1292
     27 C         144.4055  142.2167  159.8482 C.3     1  UNL1        0.0279
     28 C         145.1212  142.7630  158.6486 C.3     1  UNL1        0.0236
     29 C         145.2075  141.9491  157.3916 C.3     1  UNL1        0.0935
     30 N         144.5780  140.5888  157.3342 N.am    1  UNL1       -0.2795
     31 C         144.6643  139.7748  156.0772 C.2     1  UNL1        0.2261
     32 C         145.3800  140.3212  154.8776 C.3     1  UNL1        0.0948
     33 O         144.0348  138.4145  156.0199 O.2     1  UNL1       -0.2749
     34 C         143.8622  140.0424  158.5339 C.3     1  UNL1        0.0935
     35 C         143.7760  140.8564  159.7909 C.3     1  UNL1        0.0236
@<TRIPOS>BOND
     1    24    25    1
     2    25    23    1
     3    23    13    1
     4    13    14   ar
     5    14    15   ar
     6    15    16   ar
     7    16    17   ar
     8    17    18   ar
     9    18     1    1
    10     1     2   ar
    11     2     3   ar
    12     3    26    1
    13    26    27    1
    14    27    28    1
    15    28    29    1
    16    29    30    1
    17    30    31   am
    18    31    32    1
    19    31    33    2
    20    30    34    1
    21    34    35    1
    22     3     4   ar
    23     4     5   ar
    24     5     6   ar
    25     6     7   ar
    26     7     8   ar
    27     8     9    1
    28     8    10   ar
    29    18    19   ar
    30    19    20   ar
    31    20    21   ar
    32    21    22   ar
    33    22    13   ar
    34    21    16   ar
    35    10     1   ar
    36    35    27    1
    37    10     4   ar
    38     9    11    1
    39     9    12    1
@<TRIPOS>MOLECULE
*****
 35 39 0 0 0
SMALL
GASTEIGER

@<TRIPOS>ATOM
      1 C         140.2867  138.7636  160.9527 C.ar    1  UNL1        0.1065
      2 N         141.5435  138.2077  160.3515 N.ar    1  UNL1       -0.1679
      3 N         141.4744  138.4065  158.8663 N.ar    1  UNL1       -0.2340
      4 C         140.1748  139.0854  158.5496 C.ar    1  UNL1        0.1653
      5 N         139.5650  139.5311  157.2537 N.ar    1  UNL1       -0.2050
      6 C         138.2211  140.1976  157.2471 C.ar    1  UNL1        0.2014
      7 N         137.4871  140.4182  158.5365 N.ar    1  UNL1       -0.2093
      8 C         138.0969  139.9725  159.8325 C.ar    1  UNL1        0.1316
      9 N         137.3629  140.1932  161.1219 N.pl3   1  UNL1       -0.3425
     10 C         139.4407  139.3061  159.8390 C.ar    1  UNL1        0.0860
     11 H         136.4809  140.6306  161.1176 H       1  UNL1        0.1437
     12 H         137.7632  139.9007  161.9724 H       1  UNL1        0.1437
     13 C         139.3021  139.9659  167.6485 C.ar    1  UNL1        0.1386
     14 C         140.0651  141.1107  167.0511 C.ar    1  UNL1        0.0369
     15 C         140.4147  141.0993  165.5925 C.ar    1  UNL1        0.0031
     16 C         140.0011  139.9429  164.7312 C.ar    1  UNL1        0.0002
     17 C         140.3507  139.9314  163.2726 C.ar    1  UNL1        0.0016
     18 C         139.9371  138.7751  162.4113 C.ar    1  UNL1        0.0195
     19 C         139.1740  137.6302  163.0087 C.ar    1  UNL1        0.0016
     20 C         138.8245  137.6416  164.4674 C.ar    1  UNL1        0.0001
     21 C         139.2381  138.7981  165.3286 C.ar    1  UNL1        0.0030
     22 C         138.8885  138.8095  166.7873 C.ar    1  UNL1        0.0369
     23 O         138.9525  139.9773  169.1072 O.3     1  UNL1       -0.4755
     24 C         141.3431  139.5444  170.0279 C.3     1  UNL1        0.0512
     25 C         140.0169  140.2377  170.1315 C.3     1  UNL1        0.2055
     26 C         142.5209  137.9983  157.8725 C.3     1  UNL1        0.1292
     27 C         142.3780  136.7086  157.1199 C.3     1  UNL1        0.0279
     28 C         143.2440  135.5353  157.4712 C.3     1  UNL1        0.0236
     29 C         143.1010  134.2456  156.7187 C.3     1  UNL1        0.0935
     30 N         142.0921  134.1292  155.6148 N.am    1  UNL1       -0.2795
     31 C         141.9492  132.8395  154.8623 C.2     1  UNL1        0.2261
     32 C         142.8152  131.6663  155.2136 C.3     1  UNL1        0.0948
     33 O         140.9403  132.7231  153.7585 O.2     1  UNL1       -0.2749
     34 C         141.2261  135.3025  155.2635 C.3     1  UNL1        0.0935
     35 C         141.3691  136.5922  156.0161 C.3     1  UNL1        0.0236
@<TRIPOS>BOND
     1    24    25    1
     2    25    23    1
     3    23    13    1
     4    13    14   ar
     5    14    15   ar
     6    15    16   ar
     7    16    17   ar
     8    17    18   ar
     9    18     1    1
    10     1     2   ar
    11     2     3   ar
    12     3    26    1
    13    26    27    1
    14    27    28    1
    15    28    29    1
    16    29    30    1
    17    30    31   am
    18    31    32    1
    19    31    33    2
    20    30    34    1
    21    34    35    1
    22     3     4   ar
    23     4     5   ar
    24     5     6   ar
    25     6     7   ar
    26     7     8   ar
    27     8     9    1
    28     8    10   ar
    29    18    19   ar
    30    19    20   ar
    31    20    21   ar
    32    21    22   ar
    33    22    13   ar
    34    21    16   ar
    35    10     1   ar
    36    35    27    1
    37    10     4   ar
    38     9    11    1
    39     9    12    1
@<TRIPOS>MOLECULE
*****
 35 39 0 0 0
SMALL
GASTEIGER

@<TRIPOS>ATOM
      1 C         140.9080  138.7301  160.0791 C.ar    1  UNL1        0.1065
      2 N         142.0750  137.9453  159.5573 N.ar    1  UNL1       -0.1679
      3 N         141.9401  137.8497  158.0665 N.ar    1  UNL1       -0.2340
      4 C         140.6897  138.5756  157.6668 C.ar    1  UNL1        0.1653
      5 N         140.0495  138.8114  156.3309 N.ar    1  UNL1       -0.2050
      6 C         138.7714  139.5913  156.2389 C.ar    1  UNL1        0.2014
      7 N         138.1336  140.1354  157.4827 N.ar    1  UNL1       -0.2093
      8 C         138.7738  139.8996  158.8186 C.ar    1  UNL1        0.1316
      9 N         138.1360  140.4437  160.0625 N.pl3   1  UNL1       -0.3425
     10 C         140.0518  139.1197  158.9106 C.ar    1  UNL1        0.0860
     11 H         137.2972  140.9555  160.0021 H       1  UNL1        0.1437
     12 H         138.5562  140.2889  160.9393 H       1  UNL1        0.1437
     13 C         139.0056  139.1639  166.6702 C.ar    1  UNL1        0.1386
     14 C         138.4252  137.9165  166.0727 C.ar    1  UNL1        0.0369
     15 C         138.6896  137.5802  164.6350 C.ar    1  UNL1        0.0031
     16 C         139.5344  138.4914  163.7948 C.ar    1  UNL1        0.0002
     17 C         139.7988  138.1552  162.3570 C.ar    1  UNL1        0.0016
     18 C         140.6436  139.0663  161.5168 C.ar    1  UNL1        0.0195
     19 C         141.2241  140.3138  162.1143 C.ar    1  UNL1        0.0016
     20 C         140.9597  140.6501  163.5520 C.ar    1  UNL1        0.0001
     21 C         140.1148  139.7388  164.3922 C.ar    1  UNL1        0.0030
     22 C         139.8504  140.0751  165.8300 C.ar    1  UNL1        0.0369
     23 O         138.7413  139.5001  168.1079 O.3     1  UNL1       -0.4755
     24 C         140.8792  139.8518  169.5416 C.3     1  UNL1        0.0512
     25 C         139.6732  140.4130  168.8483 C.3     1  UNL1        0.2055
     26 C         142.8888  137.1511  157.1383 C.3     1  UNL1        0.1292
     27 C         142.6320  135.7297  156.7337 C.3     1  UNL1        0.0279
     28 C         141.6190  135.4238  155.6707 C.3     1  UNL1        0.0236
     29 C         141.3622  134.0024  155.2661 C.3     1  UNL1        0.0935
     30 N         142.1184  132.8869  155.9246 N.am    1  UNL1       -0.2795
     31 C         141.8616  131.4655  155.5200 C.2     1  UNL1        0.2261
     32 C         140.8486  131.1596  154.4570 C.3     1  UNL1        0.0948
     33 O         142.6179  130.3499  156.1785 O.2     1  UNL1       -0.2749
     34 C         143.1315  133.1928  156.9876 C.3     1  UNL1        0.0935
     35 C         143.3883  134.6142  157.3922 C.3     1  UNL1        0.0236
@<TRIPOS>BOND
     1    24    25    1
     2    25    23    1
     3    23    13    1
     4    13    14   ar
     5    14    15   ar
     6    15    16   ar
     7    16    17   ar
     8    17    18   ar
     9    18     1    1
    10     1     2   ar
    11     2     3   ar
    12     3    26    1
    13    26    27    1
    14    27    28    1
    15    28    29    1
    16    29    30    1
    17    30    31   am
    18    31    32    1
    19    31    33    2
    20    30    34    1
    21    34    35    1
    22     3     4   ar
    23     4     5   ar
    24     5     6   ar
    25     6     7   ar
    26     7     8   ar
    27     8     9    1
    28     8    10   ar
    29    18    19   ar
    30    19    20   ar
    31    20    21   ar
    32    21    22   ar
    33    22    13   ar
    34    21    16   ar
    35    10     1   ar
    36    35    27    1
    37    10     4   ar
    38     9    11    1
    39     9    12    1
@<TRIPOS>MOLECULE
*****
 35 39 0 0 0
SMALL
GASTEIGER

@<TRIPOS>ATOM
      1 C         141.8043  138.2595  160.3603 C.ar    1  UNL1        0.1065
      2 N         142.8105  137.4898  159.5571 N.ar    1  UNL1       -0.1679
      3 N         142.3642  137.4974  158.1250 N.ar    1  UNL1       -0.2340
      4 C         141.0821  138.2718  158.0432 C.ar    1  UNL1        0.1653
      5 N         140.1851  138.6089  156.8893 N.ar    1  UNL1       -0.2050
      6 C         138.9419  139.4170  157.1168 C.ar    1  UNL1        0.2014
      7 N         138.5959  139.8880  158.4983 N.ar    1  UNL1       -0.2093
      8 C         139.4930  139.5509  159.6522 C.ar    1  UNL1        0.1316
      9 N         139.1470  140.0219  161.0337 N.pl3   1  UNL1       -0.3425
     10 C         140.7360  138.7428  159.4247 C.ar    1  UNL1        0.0860
     11 H         138.3311  140.5522  161.1830 H       1  UNL1        0.1437
     12 H         139.7358  139.8006  161.7911 H       1  UNL1        0.1437
     13 C         142.6742  140.4715  166.8102 C.ar    1  UNL1        0.1386
     14 C         143.2804  141.4654  165.8643 C.ar    1  UNL1        0.0369
     15 C         143.2276  141.2218  164.3851 C.ar    1  UNL1        0.0031
     16 C         142.5687  139.9843  163.8519 C.ar    1  UNL1        0.0002
     17 C         142.5160  139.7406  162.3727 C.ar    1  UNL1        0.0016
     18 C         141.8571  138.5031  161.8395 C.ar    1  UNL1        0.0195
     19 C         141.2508  137.5092  162.7854 C.ar    1  UNL1        0.0016
     20 C         141.3036  137.7528  164.2645 C.ar    1  UNL1        0.0001
     21 C         141.9625  138.9904  164.7978 C.ar    1  UNL1        0.0030
     22 C         142.0153  139.2340  166.2769 C.ar    1  UNL1        0.0369
     23 O         142.7269  140.7152  168.2893 O.3     1  UNL1       -0.4755
     24 C         143.9727  142.4300  169.7917 C.3     1  UNL1        0.0512
     25 C         142.8802  142.1118  168.8144 C.3     1  UNL1        0.2055
     26 C         143.0750  136.8452  156.9765 C.3     1  UNL1        0.1292
     27 C         142.7507  135.4299  156.6001 C.3     1  UNL1        0.0279
     28 C         141.6824  135.1497  155.5852 C.3     1  UNL1        0.0236
     29 C         141.3581  133.7343  155.2088 C.3     1  UNL1        0.0935
     30 N         142.1021  132.5992  155.8473 N.am    1  UNL1       -0.2795
     31 C         141.7778  131.1838  155.4709 C.2     1  UNL1        0.2261
     32 C         140.7095  130.9037  154.4560 C.3     1  UNL1        0.0948
     33 O         142.5219  130.0487  156.1094 O.2     1  UNL1       -0.2749
     34 C         143.1705  132.8793  156.8622 C.3     1  UNL1        0.0935
     35 C         143.4948  134.2947  157.2386 C.3     1  UNL1        0.0236
@<TRIPOS>BOND
     1    24    25    1
     2    25    23    1
     3    23    13    1
     4    13    14   ar
     5    14    15   ar
     6    15    16   ar
     7    16    17   ar
     8    17    18   ar
     9    18     1    1
    10     1     2   ar
    11     2     3   ar
    12     3    26    1
    13    26    27    1
    14    27    28    1
    15    28    29    1
    16    29    30    1
    17    30    31   am
    18    31    32    1
    19    31    33    2
    20    30    34    1
    21    34    35    1
    22     3     4   ar
    23     4     5   ar
    24     5     6   ar
    25     6     7   ar
    26     7     8   ar
    27     8     9    1
    28     8    10   ar
    29    18    19   ar
    30    19    20   ar
    31    20    21   ar
    32    21    22   ar
    33    22    13   ar
    34    21    16   ar
    35    10     1   ar
    36    35    27    1
    37    10     4   ar
    38     9    11    1
    39     9    12    1
@<TRIPOS>MOLECULE
*****
 35 39 0 0 0
SMALL
GASTEIGER

@<TRIPOS>ATOM
      1 C         140.8742  140.6234  161.9956 C.ar    1  UNL1        0.1065
      2 N         140.9801  139.7032  163.1754 N.ar    1  UNL1       -0.1679
      3 N         139.9599  140.1294  164.1890 N.ar    1  UNL1       -0.2340
      4 C         139.2233  141.3132  163.6356 C.ar    1  UNL1        0.1653
      5 N         138.1111  142.1526  164.1910 N.ar    1  UNL1       -0.2050
      6 C         137.5639  143.2974  163.3907 C.ar    1  UNL1        0.2014
      7 N         138.1290  143.6027  162.0352 N.ar    1  UNL1       -0.2093
      8 C         139.2412  142.7633  161.4798 C.ar    1  UNL1        0.1316
      9 N         139.8063  143.0686  160.1243 N.pl3   1  UNL1       -0.3425
     10 C         139.7884  141.6186  162.2800 C.ar    1  UNL1        0.0860
     11 H         139.4472  143.8199  159.5991 H       1  UNL1        0.1437
     12 H         140.5363  142.5176  159.7598 H       1  UNL1        0.1437
     13 C         145.3097  141.3635  156.7967 C.ar    1  UNL1        0.1386
     14 C         145.5780  142.4216  157.8255 C.ar    1  UNL1        0.0369
     15 C         144.7446  142.4852  159.0710 C.ar    1  UNL1        0.0031
     16 C         143.6428  141.4907  159.2878 C.ar    1  UNL1        0.0002
     17 C         142.8094  141.5543  160.5333 C.ar    1  UNL1        0.0016
     18 C         141.7076  140.5598  160.7501 C.ar    1  UNL1        0.0195
     19 C         141.4393  139.5016  159.7213 C.ar    1  UNL1        0.0016
     20 C         142.2727  139.4380  158.4758 C.ar    1  UNL1        0.0001
     21 C         143.3745  140.4326  158.2590 C.ar    1  UNL1        0.0030
     22 C         144.2080  140.3690  157.0135 C.ar    1  UNL1        0.0369
     23 O         146.1432  141.2999  155.5512 O.3     1  UNL1       -0.4755
     24 C         148.6898  141.8123  155.5982 C.3     1  UNL1        0.0512
     25 C         147.2786  142.2609  155.3587 C.3     1  UNL1        0.2055
     26 C         139.7185  139.4852  165.5218 C.3     1  UNL1        0.1292
     27 C         140.1580  140.1753  166.7790 C.3     1  UNL1        0.0279
     28 C         141.3680  141.0617  166.7643 C.3     1  UNL1        0.0236
     29 C         141.8075  141.7519  168.0215 C.3     1  UNL1        0.0935
     30 N         141.0370  141.5557  169.2934 N.am    1  UNL1       -0.2795
     31 C         141.4765  142.2458  170.5506 C.2     1  UNL1        0.2261
     32 C         142.6864  143.1322  170.5358 C.3     1  UNL1        0.0948
     33 O         140.7060  142.0496  171.8225 O.2     1  UNL1       -0.2749
     34 C         139.8270  140.6693  169.3081 C.3     1  UNL1        0.0935
     35 C         139.3875  139.9791  168.0509 C.3     1  UNL1        0.0236
@<TRIPOS>BOND
     1    24    25    1
     2    25    23    1
     3    23    13    1
     4    13    14   ar
     5    14    15   ar
     6    15    16   ar
     7    16    17   ar
     8    17    18   ar
     9    18     1    1
    10     1     2   ar
    11     2     3   ar
    12     3    26    1
    13    26    27    1
    14    27    28    1
    15    28    29    1
    16    29    30    1
    17    30    31   am
    18    31    32    1
    19    31    33    2
    20    30    34    1
    21    34    35    1
    22     3     4   ar
    23     4     5   ar
    24     5     6   ar
    25     6     7   ar
    26     7     8   ar
    27     8     9    1
    28     8    10   ar
    29    18    19   ar
    30    19    20   ar
    31    20    21   ar
    32    21    22   ar
    33    22    13   ar
    34    21    16   ar
    35    10     1   ar
    36    35    27    1
    37    10     4   ar
    38     9    11    1
    39     9    12    1
@<TRIPOS>MOLECULE
*****
 35 39 0 0 0
SMALL
GASTEIGER

@<TRIPOS>ATOM
      1 C         139.3493  143.3422  160.7621 C.ar    1  UNL1        0.1065
      2 N         138.2961  142.6081  159.9863 N.ar    1  UNL1       -0.1679
      3 N         138.5014  142.9049  158.5303 N.ar    1  UNL1       -0.2340
      4 C         139.6815  143.8225  158.4063 C.ar    1  UNL1        0.1653
      5 N         140.3467  144.4468  157.2156 N.ar    1  UNL1       -0.2050
      6 C         141.5359  145.3415  157.4042 C.ar    1  UNL1        0.2014
      7 N         142.0599  145.6118  158.7835 N.ar    1  UNL1       -0.2093
      8 C         141.3947  144.9874  159.9742 C.ar    1  UNL1        0.1316
      9 N         141.9187  145.2577  161.3535 N.pl3   1  UNL1       -0.3425
     10 C         140.2056  144.0928  159.7856 C.ar    1  UNL1        0.0860
     11 H         142.6991  145.8449  161.4772 H       1  UNL1        0.1437
     12 H         141.4821  144.8479  162.1349 H       1  UNL1        0.1437
     13 C         140.9780  142.3255  167.3623 C.ar    1  UNL1        0.1386
     14 C         141.7693  141.3784  166.5098 C.ar    1  UNL1        0.0369
     15 C         141.6018  141.3923  165.0192 C.ar    1  UNL1        0.0031
     16 C         140.6430  142.3533  164.3812 C.ar    1  UNL1        0.0002
     17 C         140.4755  142.3673  162.8907 C.ar    1  UNL1        0.0016
     18 C         139.5168  143.3283  162.2526 C.ar    1  UNL1        0.0195
     19 C         138.7254  144.2755  163.1051 C.ar    1  UNL1        0.0016
     20 C         138.8929  144.2616  164.5957 C.ar    1  UNL1        0.0001
     21 C         139.8518  143.3004  165.2337 C.ar    1  UNL1        0.0030
     22 C         140.0193  143.2865  166.7243 C.ar    1  UNL1        0.0369
     23 O         141.1455  142.3116  168.8529 O.3     1  UNL1       -0.4755
     24 C         139.3806  140.4879  169.4092 C.3     1  UNL1        0.0512
     25 C         140.0405  141.7970  169.7270 C.3     1  UNL1        0.2055
     26 C         137.6724  142.3768  157.3974 C.3     1  UNL1        0.1292
     27 C         138.0638  141.1009  156.7127 C.3     1  UNL1        0.0279
     28 C         137.5016  140.7717  155.3615 C.3     1  UNL1        0.0236
     29 C         137.8931  139.4958  154.6768 C.3     1  UNL1        0.0935
     30 N         138.8468  138.5491  155.3432 N.am    1  UNL1       -0.2795
     31 C         139.2383  137.2732  154.6585 C.2     1  UNL1        0.2261
     32 C         138.6761  136.9441  153.3074 C.3     1  UNL1        0.0948
     33 O         140.1920  136.3264  155.3249 O.2     1  UNL1       -0.2749
     34 C         139.4090  138.8783  156.6943 C.3     1  UNL1        0.0935
     35 C         139.0175  140.1542  157.3791 C.3     1  UNL1        0.0236
@<TRIPOS>BOND
     1    24    25    1
     2    25    23    1
     3    23    13    1
     4    13    14   ar
     5    14    15   ar
     6    15    16   ar
     7    16    17   ar
     8    17    18   ar
     9    18     1    1
    10     1     2   ar
    11     2     3   ar
    12     3    26    1
    13    26    27    1
    14    27    28    1
    15    28    29    1
    16    29    30    1
    17    30    31   am
    18    31    32    1
    19    31    33    2
    20    30    34    1
    21    34    35    1
    22     3     4   ar
    23     4     5   ar
    24     5     6   ar
    25     6     7   ar
    26     7     8   ar
    27     8     9    1
    28     8    10   ar
    29    18    19   ar
    30    19    20   ar
    31    20    21   ar
    32    21    22   ar
    33    22    13   ar
    34    21    16   ar
    35    10     1   ar
    36    35    27    1
    37    10     4   ar
    38     9    11    1
    39     9    12    1
@<TRIPOS>MOLECULE
*****
 35 39 0 0 0
SMALL
GASTEIGER

@<TRIPOS>ATOM
      1 C         142.4586  138.9802  162.4847 C.ar    1  UNL1        0.1065
      2 N         143.3952  139.1651  163.6416 N.ar    1  UNL1       -0.1679
      3 N         142.6592  138.8007  164.8968 N.ar    1  UNL1       -0.2340
      4 C         141.2677  138.3905  164.5157 C.ar    1  UNL1        0.1653
      5 N         140.0975  137.9302  165.3334 N.ar    1  UNL1       -0.2050
      6 C         138.8031  137.5809  164.6604 C.ar    1  UNL1        0.2014
      7 N         138.6791  137.6919  163.1696 N.ar    1  UNL1       -0.2093
      8 C         139.8494  138.1521  162.3519 C.ar    1  UNL1        0.1316
      9 N         139.7254  138.2630  160.8611 N.pl3   1  UNL1       -0.3425
     10 C         141.1436  138.5014  163.0249 C.ar    1  UNL1        0.0860
     11 H         138.8759  138.0338  160.4194 H       1  UNL1        0.1437
     12 H         140.4934  138.5651  160.3244 H       1  UNL1        0.1437
     13 C         144.0903  141.3645  156.2475 C.ar    1  UNL1        0.1386
     14 C         144.1135  142.4990  157.2284 C.ar    1  UNL1        0.0369
     15 C         143.7917  142.2491  158.6720 C.ar    1  UNL1        0.0031
     16 C         143.4469  140.8646  159.1348 C.ar    1  UNL1        0.0002
     17 C         143.1251  140.6146  160.5784 C.ar    1  UNL1        0.0016
     18 C         142.7803  139.2301  161.0411 C.ar    1  UNL1        0.0195
     19 C         142.7572  138.0955  160.0602 C.ar    1  UNL1        0.0016
     20 C         143.0789  138.3454  158.6166 C.ar    1  UNL1        0.0001
     21 C         143.4238  139.7300  158.1539 C.ar    1  UNL1        0.0030
     22 C         143.7455  139.9800  156.7103 C.ar    1  UNL1        0.0369
     23 O         144.4121  141.6144  154.8039 O.3     1  UNL1       -0.4755
     24 C         146.9511  141.4859  155.3395 C.3     1  UNL1        0.0512
     25 C         145.8384  141.5998  154.3400 C.3     1  UNL1        0.2055
     26 C         143.2168  138.8396  166.2887 C.3     1  UNL1        0.1292
     27 C         142.6290  139.7718  167.3063 C.3     1  UNL1        0.0279
     28 C         142.1926  141.1479  166.8991 C.3     1  UNL1        0.0236
     29 C         141.6048  142.0802  167.9167 C.3     1  UNL1        0.0935
     30 N         141.4534  141.6363  169.3415 N.am    1  UNL1       -0.2795
     31 C         140.8656  142.5685  170.3590 C.2     1  UNL1        0.2261
     32 C         140.4293  143.9446  169.9518 C.3     1  UNL1        0.0948
     33 O         140.7143  142.1247  171.7838 O.2     1  UNL1       -0.2749
     34 C         141.8899  140.2602  169.7487 C.3     1  UNL1        0.0935
     35 C         142.4777  139.3279  168.7311 C.3     1  UNL1        0.0236
@<TRIPOS>BOND
     1    24    25    1
     2    25    23    1
     3    23    13    1
     4    13    14   ar
     5    14    15   ar
     6    15    16   ar
     7    16    17   ar
     8    17    18   ar
     9    18     1    1
    10     1     2   ar
    11     2     3   ar
    12     3    26    1
    13    26    27    1
    14    27    28    1
    15    28    29    1
    16    29    30    1
    17    30    31   am
    18    31    32    1
    19    31    33    2
    20    30    34    1
    21    34    35    1
    22     3     4   ar
    23     4     5   ar
    24     5     6   ar
    25     6     7   ar
    26     7     8   ar
    27     8     9    1
    28     8    10   ar
    29    18    19   ar
    30    19    20   ar
    31    20    21   ar
    32    21    22   ar
    33    22    13   ar
    34    21    16   ar
    35    10     1   ar
    36    35    27    1
    37    10     4   ar
    38     9    11    1
    39     9    12    1
@<TRIPOS>MOLECULE
*****
 35 39 0 0 0
SMALL
GASTEIGER

@<TRIPOS>ATOM
      1 C         141.7334  141.4765  161.5174 C.ar    1  UNL1        0.1065
      2 N         140.7336  140.8643  162.4531 N.ar    1  UNL1       -0.1679
      3 N         141.4664  140.4042  163.6783 N.ar    1  UNL1       -0.2340
      4 C         142.9192  140.7321  163.4999 C.ar    1  UNL1        0.1653
      5 N         144.1132  140.5128  164.3810 N.ar    1  UNL1       -0.2050
      6 C         145.4723  140.9563  163.9265 C.ar    1  UNL1        0.2014
      7 N         145.6373  141.6190  162.5910 N.ar    1  UNL1       -0.2093
      8 C         144.4433  141.8382  161.7099 C.ar    1  UNL1        0.1316
      9 N         144.6082  142.5009  160.3744 N.pl3   1  UNL1       -0.3425
     10 C         143.0843  141.3948  162.1644 C.ar    1  UNL1        0.0860
     11 H         145.5002  142.7920  160.0761 H       1  UNL1        0.1437
     12 H         143.8246  142.6448  159.7961 H       1  UNL1        0.1437
     13 C         140.1758  145.2879  156.0131 C.ar    1  UNL1        0.1386
     14 C         140.1110  146.1481  157.2403 C.ar    1  UNL1        0.0369
     15 C         140.4096  145.5578  158.5865 C.ar    1  UNL1        0.0031
     16 C         140.7729  144.1074  158.7057 C.ar    1  UNL1        0.0002
     17 C         141.0715  143.5172  160.0520 C.ar    1  UNL1        0.0016
     18 C         141.4348  142.0667  160.1711 C.ar    1  UNL1        0.0195
     19 C         141.4996  141.2065  158.9439 C.ar    1  UNL1        0.0016
     20 C         141.2011  141.7968  157.5977 C.ar    1  UNL1        0.0001
     21 C         140.8377  143.2473  157.4786 C.ar    1  UNL1        0.0030
     22 C         140.5392  143.8375  156.1323 C.ar    1  UNL1        0.0369
     23 O         139.8773  145.8782  154.6669 O.3     1  UNL1       -0.4755
     24 C         139.5482  148.4500  154.5007 C.3     1  UNL1        0.0512
     25 C         140.4068  147.2351  154.3087 C.3     1  UNL1        0.2055
     26 C         140.8541  139.7340  164.8723 C.3     1  UNL1        0.1292
     27 C         140.6818  140.4952  166.1533 C.3     1  UNL1        0.0279
     28 C         140.8019  141.9903  166.1593 C.3     1  UNL1        0.0236
     29 C         140.6296  142.7515  167.4403 C.3     1  UNL1        0.0935
     30 N         140.3371  142.0175  168.7153 N.am    1  UNL1       -0.2795
     31 C         140.1647  142.7787  169.9963 C.2     1  UNL1        0.2261
     32 C         140.2849  144.2738  170.0023 C.3     1  UNL1        0.0948
     33 O         139.8722  142.0447  171.2714 O.2     1  UNL1       -0.2749
     34 C         140.2169  140.5224  168.7093 C.3     1  UNL1        0.0935
     35 C         140.3892  139.7612  167.4283 C.3     1  UNL1        0.0236
@<TRIPOS>BOND
     1    24    25    1
     2    25    23    1
     3    23    13    1
     4    13    14   ar
     5    14    15   ar
     6    15    16   ar
     7    16    17   ar
     8    17    18   ar
     9    18     1    1
    10     1     2   ar
    11     2     3   ar
    12     3    26    1
    13    26    27    1
    14    27    28    1
    15    28    29    1
    16    29    30    1
    17    30    31   am
    18    31    32    1
    19    31    33    2
    20    30    34    1
    21    34    35    1
    22     3     4   ar
    23     4     5   ar
    24     5     6   ar
    25     6     7   ar
    26     7     8   ar
    27     8     9    1
    28     8    10   ar
    29    18    19   ar
    30    19    20   ar
    31    20    21   ar
    32    21    22   ar
    33    22    13   ar
    34    21    16   ar
    35    10     1   ar
    36    35    27    1
    37    10     4   ar
    38     9    11    1
    39     9    12    1
@<TRIPOS>MOLECULE
*****
 35 39 0 0 0
SMALL
GASTEIGER

@<TRIPOS>ATOM
      1 C         137.6147  140.8417  157.6453 C.ar    1  UNL1        0.1065
      2 N         136.3757  140.3397  156.9650 N.ar    1  UNL1       -0.1679
      3 N         135.9483  141.3693  155.9614 N.ar    1  UNL1       -0.2340
      4 C         136.9232  142.5077  156.0214 C.ar    1  UNL1        0.1653
      5 N         137.0062  143.7991  155.2628 N.ar    1  UNL1       -0.2050
      6 C         138.1192  144.7645  155.5450 C.ar    1  UNL1        0.2014
      7 N         139.1490  144.4384  156.5857 N.ar    1  UNL1       -0.2093
      8 C         139.0660  143.1470  157.3442 C.ar    1  UNL1        0.1316
      9 N         140.0959  142.8209  158.3849 N.pl3   1  UNL1       -0.3425
     10 C         137.9532  142.1817  157.0621 C.ar    1  UNL1        0.0860
     11 H         140.8263  143.4545  158.5701 H       1  UNL1        0.1437
     12 H         140.0414  141.9733  158.8828 H       1  UNL1        0.1437
     13 C         140.1480  137.9559  163.3465 C.ar    1  UNL1        0.1386
     14 C         138.8507  138.6338  163.6741 C.ar    1  UNL1        0.0369
     15 C         138.0846  139.3465  162.5994 C.ar    1  UNL1        0.0031
     16 C         138.6158  139.3814  161.1971 C.ar    1  UNL1        0.0002
     17 C         137.8496  140.0941  160.1223 C.ar    1  UNL1        0.0016
     18 C         138.3809  140.1290  158.7200 C.ar    1  UNL1        0.0195
     19 C         139.6783  139.4511  158.3924 C.ar    1  UNL1        0.0016
     20 C         140.4444  138.7384  159.4671 C.ar    1  UNL1        0.0001
     21 C         139.9131  138.7035  160.8695 C.ar    1  UNL1        0.0030
     22 C         140.6792  137.9908  161.9442 C.ar    1  UNL1        0.0369
     23 O         140.9141  137.2432  164.4213 O.3     1  UNL1       -0.4755
     24 C         142.0335  139.2370  165.6549 C.3     1  UNL1        0.0512
     25 C         142.1317  137.8803  165.0226 C.3     1  UNL1        0.2055
     26 C         134.7555  141.2768  155.0566 C.3     1  UNL1        0.1292
     27 C         133.4717  140.6914  155.5657 C.3     1  UNL1        0.0279
     28 C         132.1987  141.4790  155.4708 C.3     1  UNL1        0.0236
     29 C         130.9148  140.8937  155.9799 C.3     1  UNL1        0.0935
     30 N         130.9040  139.5207  156.5839 N.am    1  UNL1       -0.2795
     31 C         129.6202  138.9354  157.0929 C.2     1  UNL1        0.2261
     32 C         128.3472  139.7230  156.9980 C.3     1  UNL1        0.0948
     33 O         129.6094  137.5624  157.6969 O.2     1  UNL1       -0.2749
     34 C         132.1771  138.7331  156.6788 C.3     1  UNL1        0.0935
     35 C         133.4609  139.3185  156.1697 C.3     1  UNL1        0.0236
@<TRIPOS>BOND
     1    24    25    1
     2    25    23    1
     3    23    13    1
     4    13    14   ar
     5    14    15   ar
     6    15    16   ar
     7    16    17   ar
     8    17    18   ar
     9    18     1    1
    10     1     2   ar
    11     2     3   ar
    12     3    26    1
    13    26    27    1
    14    27    28    1
    15    28    29    1
    16    29    30    1
    17    30    31   am
    18    31    32    1
    19    31    33    2
    20    30    34    1
    21    34    35    1
    22     3     4   ar
    23     4     5   ar
    24     5     6   ar
    25     6     7   ar
    26     7     8   ar
    27     8     9    1
    28     8    10   ar
    29    18    19   ar
    30    19    20   ar
    31    20    21   ar
    32    21    22   ar
    33    22    13   ar
    34    21    16   ar
    35    10     1   ar
    36    35    27    1
    37    10     4   ar
    38     9    11    1
    39     9    12    1
