@<TRIPOS>MOLECULE
*****
 33 36 0 0 0
SMALL
GASTEIGER

@<TRIPOS>ATOM
      1 C         140.9420  139.7435  166.0847 C.ar    1  UNL1        0.2019
      2 N         141.4007  140.5658  167.2523 N.ar    1  UNL1       -0.1961
      3 C         140.5370  140.6823  168.4731 C.ar    1  UNL1        0.1682
      4 C         139.2145  139.9765  168.5262 C.ar    1  UNL1        0.1125
      5 C         138.5834  140.2738  169.8541 C.ar    1  UNL1        0.1280
      6 N         139.5159  141.1634  170.6217 N.ar    1  UNL1       -0.1663
      7 N         140.7233  141.4158  169.7681 N.ar    1  UNL1       -0.2376
      8 C         138.7557  139.1542  167.3586 C.ar    1  UNL1        0.2676
      9 O         137.4332  138.4484  167.4117 O.2     1  UNL1       -0.2667
     10 N         139.6195  139.0378  166.1378 N.ar    1  UNL1       -0.2645
     11 C         141.9088  142.2545  170.1438 C.3     1  UNL1        0.0882
     12 C         141.1354  143.4962  169.8120 C.3     1  UNL1        0.0245
     13 C         142.6821  141.0128  170.4755 C.3     1  UNL1        0.0245
     14 C         143.0943  143.0933  170.5194 C.3     1  UNL1        0.0245
     15 N         141.8058  139.6271  164.8638 N.pl3   1  UNL1       -0.3021
     16 H         141.9109  138.7564  164.4164 H       1  UNL1        0.1498
     17 C         144.0086  140.8824  164.2962 C.3     1  UNL1        0.0262
     18 C         142.5095  140.8371  164.3249 C.3     1  UNL1        0.0943
     19 C         141.7142  142.0020  163.8146 C.ar    1  UNL1       -0.0045
     20 C         141.2051  142.0021  162.4036 C.ar    1  UNL1       -0.0018
     21 C         140.4097  143.1671  161.8934 C.ar    1  UNL1        0.0111
     22 C         140.1235  144.3318  162.7940 C.ar    1  UNL1        0.0577
     23 CL        139.3281  145.4968  162.2838 Cl      1  UNL1       -0.0822
     24 C         140.6325  144.3318  164.2050 C.ar    1  UNL1        0.0111
     25 C         141.4279  143.1669  164.7153 C.ar    1  UNL1       -0.0018
     26 C         139.1607  138.2155  164.9701 C.3     1  UNL1        0.1384
     27 C         138.7729  138.8870  163.6861 C.ar    1  UNL1        0.0007
     28 C         138.0562  140.2044  163.7154 C.ar    1  UNL1       -0.0001
     29 C         137.6684  140.8759  162.4314 C.ar    1  UNL1        0.0294
     30 C         137.9972  140.2301  161.1181 C.ar    1  UNL1        0.1401
     31 F         137.6094  140.9016  159.8341 F       1  UNL1       -0.2042
     32 C         138.7138  138.9127  161.0888 C.ar    1  UNL1        0.0294
     33 C         139.1017  138.2412  162.3728 C.ar    1  UNL1       -0.0001
@<TRIPOS>BOND
     1    18    17    1
     2    18    15    1
     3    15     1    1
     4     1     2   ar
     5     2     3   ar
     6     3     4   ar
     7     4     5   ar
     8     5     6   ar
     9     6     7   ar
    10     7    11    1
    11    11    12    1
    12    11    13    1
    13    11    14    1
    14     4     8   ar
    15     8     9    2
    16     8    10   ar
    17    10    26    1
    18    26    27    1
    19    27    28   ar
    20    28    29   ar
    21    29    30   ar
    22    30    31    1
    23    30    32   ar
    24    32    33   ar
    25    18    19    1
    26    19    20   ar
    27    20    21   ar
    28    21    22   ar
    29    22    23    1
    30    22    24   ar
    31    24    25   ar
    32    10     1   ar
    33    33    27   ar
    34    25    19   ar
    35     7     3   ar
    36    15    16    1
@<TRIPOS>MOLECULE
*****
 33 36 0 0 0
SMALL
GASTEIGER

@<TRIPOS>ATOM
      1 C         140.8396  139.7492  166.0207 C.ar    1  UNL1        0.2019
      2 N         141.3460  140.5537  167.1810 N.ar    1  UNL1       -0.1961
      3 C         140.5290  140.6584  168.4346 C.ar    1  UNL1        0.1682
      4 C         139.2055  139.9586  168.5278 C.ar    1  UNL1        0.1125
      5 C         138.6259  140.2415  169.8820 C.ar    1  UNL1        0.1280
      6 N         139.5911  141.1162  170.6258 N.ar    1  UNL1       -0.1663
      7 N         140.7673  141.3739  169.7312 N.ar    1  UNL1       -0.2376
      8 C         138.6991  139.1541  167.3675 C.ar    1  UNL1        0.2676
      9 O         137.3756  138.4543  167.4606 O.2     1  UNL1       -0.2667
     10 N         139.5162  139.0495  166.1139 N.ar    1  UNL1       -0.2645
     11 C         141.9706  142.2016  170.0732 C.3     1  UNL1        0.0882
     12 C         142.7617  140.9508  170.3171 C.3     1  UNL1        0.0245
     13 C         141.1794  143.4524  169.8294 C.3     1  UNL1        0.0245
     14 C         143.1738  143.0294  170.4153 C.3     1  UNL1        0.0245
     15 N         141.6568  139.6446  164.7671 N.pl3   1  UNL1       -0.3021
     16 H         141.7061  138.7895  164.2816 H       1  UNL1        0.1498
     17 C         143.8988  140.8495  164.2458 C.3     1  UNL1        0.0262
     18 C         142.3988  140.8427  164.2534 C.3     1  UNL1        0.0943
     19 C         141.6409  142.0341  163.7474 C.ar    1  UNL1       -0.0045
     20 C         141.1738  142.0760  162.3225 C.ar    1  UNL1       -0.0018
     21 C         140.4158  143.2674  161.8166 C.ar    1  UNL1        0.0111
     22 C         140.1250  144.4168  162.7353 C.ar    1  UNL1        0.0577
     23 CL        139.3671  145.6083  162.2292 Cl      1  UNL1       -0.0822
     24 C         140.5921  144.3749  164.1601 C.ar    1  UNL1        0.0111
     25 C         141.3500  143.1836  164.6661 C.ar    1  UNL1       -0.0018
     26 C         139.0098  138.2449  164.9535 C.3     1  UNL1        0.1384
     27 C         138.6838  138.9232  163.6559 C.ar    1  UNL1        0.0007
     28 C         139.0449  138.2681  162.3558 C.ar    1  UNL1       -0.0001
     29 C         138.7189  138.9464  161.0582 C.ar    1  UNL1        0.0294
     30 C         138.0319  140.2798  161.0608 C.ar    1  UNL1        0.1401
     31 F         137.7059  140.9582  159.7633 F       1  UNL1       -0.2042
     32 C         137.6708  140.9349  162.3610 C.ar    1  UNL1        0.0294
     33 C         137.9968  140.2566  163.6586 C.ar    1  UNL1       -0.0001
@<TRIPOS>BOND
     1    18    17    1
     2    18    15    1
     3    15     1    1
     4     1     2   ar
     5     2     3   ar
     6     3     4   ar
     7     4     5   ar
     8     5     6   ar
     9     6     7   ar
    10     7    11    1
    11    11    12    1
    12    11    13    1
    13    11    14    1
    14     4     8   ar
    15     8     9    2
    16     8    10   ar
    17    10    26    1
    18    26    27    1
    19    27    28   ar
    20    28    29   ar
    21    29    30   ar
    22    30    31    1
    23    30    32   ar
    24    32    33   ar
    25    18    19    1
    26    19    20   ar
    27    20    21   ar
    28    21    22   ar
    29    22    23    1
    30    22    24   ar
    31    24    25   ar
    32    10     1   ar
    33    33    27   ar
    34    25    19   ar
    35     7     3   ar
    36    15    16    1
@<TRIPOS>MOLECULE
*****
 33 36 0 0 0
SMALL
GASTEIGER

@<TRIPOS>ATOM
      1 C         141.8309  140.4898  165.0934 C.ar    1  UNL1        0.2019
      2 N         141.6343  140.6816  166.5681 N.ar    1  UNL1       -0.1961
      3 C         140.3941  140.1623  167.2331 C.ar    1  UNL1        0.1682
      4 C         139.3505  139.4513  166.4235 C.ar    1  UNL1        0.1125
      5 C         138.2391  139.0517  167.3482 C.ar    1  UNL1        0.1280
      6 N         138.5957  139.5158  168.7292 N.ar    1  UNL1       -0.1663
      7 N         139.9276  140.2022  168.6581 N.ar    1  UNL1       -0.2376
      8 C         139.5472  139.2595  164.9489 C.ar    1  UNL1        0.2676
      9 O         138.5037  138.5484  164.1392 O.2     1  UNL1       -0.2667
     10 N         140.7875  139.7788  164.2839 N.ar    1  UNL1       -0.2645
     11 C         140.6636  140.8200  169.8099 C.3     1  UNL1        0.0882
     12 C         141.3682  139.5191  170.0574 C.3     1  UNL1        0.0245
     13 C         139.9591  142.1209  169.5623 C.3     1  UNL1        0.0245
     14 C         141.3997  141.4379  170.9616 C.3     1  UNL1        0.0245
     15 N         143.0712  141.0091  164.4284 N.pl3   1  UNL1       -0.3021
     16 H         143.6908  140.3849  163.9862 H       1  UNL1        0.1498
     17 C         144.6082  142.9908  165.1072 C.3     1  UNL1        0.0262
     18 C         143.3673  142.4795  164.4373 C.3     1  UNL1        0.0943
     19 C         142.4224  143.4389  163.7763 C.ar    1  UNL1       -0.0045
     20 C         141.1589  143.8478  164.4739 C.ar    1  UNL1       -0.0018
     21 C         140.2141  144.8071  163.8128 C.ar    1  UNL1        0.0111
     22 C         140.5327  145.3575  162.4543 C.ar    1  UNL1        0.0577
     23 CL        139.5878  146.3168  161.7933 Cl      1  UNL1       -0.0822
     24 C         141.7961  144.9485  161.7568 C.ar    1  UNL1        0.0111
     25 C         142.7409  143.9892  162.4178 C.ar    1  UNL1       -0.0018
     26 C         140.9841  139.5870  162.8092 C.3     1  UNL1        0.1384
     27 C         140.5440  140.6521  161.8490 C.ar    1  UNL1        0.0007
     28 C         141.3728  140.9580  160.6368 C.ar    1  UNL1       -0.0001
     29 C         140.9327  142.0232  159.6767 C.ar    1  UNL1        0.0294
     30 C         139.6638  142.7824  159.9288 C.ar    1  UNL1        0.1401
     31 F         139.2237  143.8476  158.9687 F       1  UNL1       -0.2042
     32 C         138.8351  142.4764  161.1410 C.ar    1  UNL1        0.0294
     33 C         139.2752  141.4113  162.1012 C.ar    1  UNL1       -0.0001
@<TRIPOS>BOND
     1    18    17    1
     2    18    15    1
     3    15     1    1
     4     1     2   ar
     5     2     3   ar
     6     3     4   ar
     7     4     5   ar
     8     5     6   ar
     9     6     7   ar
    10     7    11    1
    11    11    12    1
    12    11    13    1
    13    11    14    1
    14     4     8   ar
    15     8     9    2
    16     8    10   ar
    17    10    26    1
    18    26    27    1
    19    27    28   ar
    20    28    29   ar
    21    29    30   ar
    22    30    31    1
    23    30    32   ar
    24    32    33   ar
    25    18    19    1
    26    19    20   ar
    27    20    21   ar
    28    21    22   ar
    29    22    23    1
    30    22    24   ar
    31    24    25   ar
    32    10     1   ar
    33    33    27   ar
    34    25    19   ar
    35     7     3   ar
    36    15    16    1
@<TRIPOS>MOLECULE
*****
 33 36 0 0 0
SMALL
GASTEIGER

@<TRIPOS>ATOM
      1 C         141.0872  139.0834  165.7851 C.ar    1  UNL1        0.2019
      2 N         141.7127  139.8474  166.9142 N.ar    1  UNL1       -0.1961
      3 C         140.8862  140.2396  168.1030 C.ar    1  UNL1        0.1682
      4 C         139.4343  139.8677  168.1626 C.ar    1  UNL1        0.1125
      5 C         138.8752  140.3877  169.4538 C.ar    1  UNL1        0.1280
      6 N         139.9817  141.0809  170.1921 N.ar    1  UNL1       -0.1663
      7 N         141.2246  140.9894  169.3573 N.ar    1  UNL1       -0.2376
      8 C         138.8088  139.1037  167.0335 C.ar    1  UNL1        0.2676
      9 O         137.3568  138.7318  167.0930 O.2     1  UNL1       -0.2667
     10 N         139.6353  138.7115  165.8447 N.ar    1  UNL1       -0.2645
     11 C         142.5696  141.5493  169.7142 C.3     1  UNL1        0.0882
     12 C         142.9503  140.2385  170.3361 C.3     1  UNL1        0.0245
     13 C         142.1889  142.8602  169.0923 C.3     1  UNL1        0.0245
     14 C         143.9146  142.1093  170.0711 C.3     1  UNL1        0.0245
     15 N         141.9137  138.6912  164.5963 N.pl3   1  UNL1       -0.3021
     16 H         142.3160  137.7938  164.5509 H       1  UNL1        0.1498
     17 C         141.8945  139.2414  162.0571 C.3     1  UNL1        0.0262
     18 C         142.1272  139.6664  163.4768 C.3     1  UNL1        0.0943
     19 C         142.5735  141.0667  163.7768 C.ar    1  UNL1       -0.0045
     20 C         141.6491  142.2198  163.5198 C.ar    1  UNL1       -0.0018
     21 C         142.0955  143.6201  163.8198 C.ar    1  UNL1        0.0111
     22 C         143.4660  143.8673  164.3769 C.ar    1  UNL1        0.0577
     23 CL        143.9124  145.2676  164.6770 Cl      1  UNL1       -0.0822
     24 C         144.3904  142.7142  164.6340 C.ar    1  UNL1        0.0111
     25 C         143.9441  141.3139  164.3339 C.ar    1  UNL1       -0.0018
     26 C         139.0098  137.9474  164.7155 C.3     1  UNL1        0.1384
     27 C         138.6407  138.6546  163.4452 C.ar    1  UNL1        0.0007
     28 C         138.3311  140.1221  163.4664 C.ar    1  UNL1       -0.0001
     29 C         137.9620  140.8293  162.1961 C.ar    1  UNL1        0.0294
     30 C         137.9025  140.0689  160.9045 C.ar    1  UNL1        0.1401
     31 F         137.5334  140.7759  159.6341 F       1  UNL1       -0.2042
     32 C         138.2120  138.6013  160.8832 C.ar    1  UNL1        0.0294
     33 C         138.5811  137.8942  162.1536 C.ar    1  UNL1       -0.0001
@<TRIPOS>BOND
     1    18    17    1
     2    18    15    1
     3    15     1    1
     4     1     2   ar
     5     2     3   ar
     6     3     4   ar
     7     4     5   ar
     8     5     6   ar
     9     6     7   ar
    10     7    11    1
    11    11    12    1
    12    11    13    1
    13    11    14    1
    14     4     8   ar
    15     8     9    2
    16     8    10   ar
    17    10    26    1
    18    26    27    1
    19    27    28   ar
    20    28    29   ar
    21    29    30   ar
    22    30    31    1
    23    30    32   ar
    24    32    33   ar
    25    18    19    1
    26    19    20   ar
    27    20    21   ar
    28    21    22   ar
    29    22    23    1
    30    22    24   ar
    31    24    25   ar
    32    10     1   ar
    33    33    27   ar
    34    25    19   ar
    35     7     3   ar
    36    15    16    1
@<TRIPOS>MOLECULE
*****
 33 36 0 0 0
SMALL
GASTEIGER

@<TRIPOS>ATOM
      1 C         143.3031  140.5898  163.6724 C.ar    1  UNL1        0.2019
      2 N         143.2615  141.1959  162.3010 N.ar    1  UNL1       -0.1961
      3 C         142.5394  140.4911  161.1912 C.ar    1  UNL1        0.1682
      4 C         141.8588  139.1802  161.4527 C.ar    1  UNL1        0.1125
      5 C         141.2291  138.7209  160.1711 C.ar    1  UNL1        0.1280
      6 N         141.5205  139.7480  159.1175 N.ar    1  UNL1       -0.1663
      7 N         142.3303  140.8420  159.7478 N.ar    1  UNL1       -0.2376
      8 C         141.9004  138.5741  162.8242 C.ar    1  UNL1        0.2676
      9 O         141.2199  137.2632  163.0859 O.2     1  UNL1       -0.2667
     10 N         142.6226  139.2789  163.9340 N.ar    1  UNL1       -0.2645
     11 C         142.8413  142.0711  159.0563 C.3     1  UNL1        0.0882
     12 C         141.6135  142.8207  159.4814 C.3     1  UNL1        0.0245
     13 C         144.0690  141.3216  158.6312 C.3     1  UNL1        0.0245
     14 C         143.3522  143.3002  158.3648 C.3     1  UNL1        0.0245
     15 N         144.0253  141.2946  164.7823 N.pl3   1  UNL1       -0.3021
     16 H         144.7179  140.8213  165.2976 H       1  UNL1        0.1498
     17 C         144.7851  143.6830  165.4668 C.3     1  UNL1        0.0262
     18 C         143.6922  142.7206  165.1070 C.3     1  UNL1        0.0943
     19 C         142.2662  143.1844  165.0719 C.ar    1  UNL1       -0.0045
     20 C         141.3019  142.7249  166.1251 C.ar    1  UNL1       -0.0018
     21 C         139.8758  143.1887  166.0898 C.ar    1  UNL1        0.0111
     22 C         139.4140  144.1119  165.0016 C.ar    1  UNL1        0.0577
     23 CL        137.9879  144.5757  164.9664 Cl      1  UNL1       -0.0822
     24 C         140.3782  144.5714  163.9485 C.ar    1  UNL1        0.0111
     25 C         141.8043  144.1076  163.9836 C.ar    1  UNL1       -0.0018
     26 C         142.6643  138.6728  165.3056 C.3     1  UNL1        0.1384
     27 C         141.7126  139.1462  166.3640 C.ar    1  UNL1        0.0007
     28 C         140.2420  139.2109  166.0756 C.ar    1  UNL1       -0.0001
     29 C         139.2903  139.6843  167.1340 C.ar    1  UNL1        0.0294
     30 C         139.8092  140.0930  168.4807 C.ar    1  UNL1        0.1401
     31 F         138.8575  140.5665  169.5392 F       1  UNL1       -0.2042
     32 C         141.2798  140.0284  168.7691 C.ar    1  UNL1        0.0294
     33 C         142.2315  139.5549  167.7107 C.ar    1  UNL1       -0.0001
@<TRIPOS>BOND
     1    18    17    1
     2    18    15    1
     3    15     1    1
     4     1     2   ar
     5     2     3   ar
     6     3     4   ar
     7     4     5   ar
     8     5     6   ar
     9     6     7   ar
    10     7    11    1
    11    11    12    1
    12    11    13    1
    13    11    14    1
    14     4     8   ar
    15     8     9    2
    16     8    10   ar
    17    10    26    1
    18    26    27    1
    19    27    28   ar
    20    28    29   ar
    21    29    30   ar
    22    30    31    1
    23    30    32   ar
    24    32    33   ar
    25    18    19    1
    26    19    20   ar
    27    20    21   ar
    28    21    22   ar
    29    22    23    1
    30    22    24   ar
    31    24    25   ar
    32    10     1   ar
    33    33    27   ar
    34    25    19   ar
    35     7     3   ar
    36    15    16    1
@<TRIPOS>MOLECULE
*****
 33 36 0 0 0
SMALL
GASTEIGER

@<TRIPOS>ATOM
      1 C         141.7763  143.2355  163.6277 C.ar    1  UNL1        0.2019
      2 N         141.1415  143.1122  162.2742 N.ar    1  UNL1       -0.1961
      3 C         141.8325  142.3404  161.1893 C.ar    1  UNL1        0.1682
      4 C         143.1582  141.6920  161.4579 C.ar    1  UNL1        0.1125
      5 C         143.5987  141.0001  160.2020 C.ar    1  UNL1        0.1280
      6 N         142.5453  141.2209  159.1573 N.ar    1  UNL1       -0.1663
      7 N         141.4537  142.0493  159.7675 N.ar    1  UNL1       -0.2376
      8 C         143.7929  141.8154  162.8114 C.ar    1  UNL1        0.2676
      9 O         145.1187  141.1670  163.0800 O.2     1  UNL1       -0.2667
     10 N         143.1019  142.5872  163.8962 N.ar    1  UNL1       -0.2645
     11 C         140.2029  142.5062  159.0770 C.3     1  UNL1        0.0882
     12 C         139.4883  141.2786  159.5591 C.3     1  UNL1        0.0245
     13 C         140.9175  143.7337  158.5948 C.3     1  UNL1        0.0245
     14 C         138.9522  142.9631  158.3865 C.3     1  UNL1        0.0245
     15 N         141.0853  144.0073  164.7126 N.pl3   1  UNL1       -0.3021
     16 H         141.5592  144.7338  165.1783 H       1  UNL1        0.1498
     17 C         138.6466  144.7614  165.1969 C.3     1  UNL1        0.0262
     18 C         139.6722  143.6722  165.0878 C.3     1  UNL1        0.0943
     19 C         139.2845  142.2478  165.3539 C.ar    1  UNL1       -0.0045
     20 C         139.7339  141.5713  166.6151 C.ar    1  UNL1       -0.0018
     21 C         139.3462  140.1469  166.8811 C.ar    1  UNL1        0.0111
     22 C         138.5093  139.3990  165.8861 C.ar    1  UNL1        0.0577
     23 CL        138.1216  137.9745  166.1522 Cl      1  UNL1       -0.0822
     24 C         138.0599  140.0755  164.6250 C.ar    1  UNL1        0.0111
     25 C         138.4475  141.4999  164.3589 C.ar    1  UNL1       -0.0018
     26 C         143.7367  142.7106  165.2498 C.3     1  UNL1        0.1384
     27 C         143.3641  141.7534  166.3430 C.ar    1  UNL1        0.0007
     28 C         143.1659  140.2996  166.0316 C.ar    1  UNL1       -0.0001
     29 C         142.7933  139.3424  167.1248 C.ar    1  UNL1        0.0294
     30 C         142.6188  139.8392  168.5294 C.ar    1  UNL1        0.1401
     31 F         142.2462  138.8821  169.6226 F       1  UNL1       -0.2042
     32 C         142.8170  141.2930  168.8407 C.ar    1  UNL1        0.0294
     33 C         143.1896  142.2502  167.7475 C.ar    1  UNL1       -0.0001
@<TRIPOS>BOND
     1    18    17    1
     2    18    15    1
     3    15     1    1
     4     1     2   ar
     5     2     3   ar
     6     3     4   ar
     7     4     5   ar
     8     5     6   ar
     9     6     7   ar
    10     7    11    1
    11    11    12    1
    12    11    13    1
    13    11    14    1
    14     4     8   ar
    15     8     9    2
    16     8    10   ar
    17    10    26    1
    18    26    27    1
    19    27    28   ar
    20    28    29   ar
    21    29    30   ar
    22    30    31    1
    23    30    32   ar
    24    32    33   ar
    25    18    19    1
    26    19    20   ar
    27    20    21   ar
    28    21    22   ar
    29    22    23    1
    30    22    24   ar
    31    24    25   ar
    32    10     1   ar
    33    33    27   ar
    34    25    19   ar
    35     7     3   ar
    36    15    16    1
@<TRIPOS>MOLECULE
*****
 33 36 0 0 0
SMALL
GASTEIGER

@<TRIPOS>ATOM
      1 C         141.7198  140.2433  163.1468 C.ar    1  UNL1        0.2019
      2 N         141.0095  140.8053  161.9512 N.ar    1  UNL1       -0.1961
      3 C         139.6699  140.2622  161.5508 C.ar    1  UNL1        0.1682
      4 C         139.0405  139.1570  162.3461 C.ar    1  UNL1        0.1125
      5 C         137.7204  138.8258  161.7155 C.ar    1  UNL1        0.1280
      6 N         137.5339  139.7263  160.5305 N.ar    1  UNL1       -0.1663
      7 N         138.7387  140.6140  160.4287 N.ar    1  UNL1       -0.2376
      8 C         139.7507  138.5950  163.5418 C.ar    1  UNL1        0.2676
      9 O         139.1214  137.4898  164.3371 O.2     1  UNL1       -0.2667
     10 N         141.0904  139.1382  163.9421 N.ar    1  UNL1       -0.2645
     11 C         138.9715  141.6684  159.3875 C.3     1  UNL1        0.0882
     12 C         138.4974  142.7200  160.3464 C.3     1  UNL1        0.0245
     13 C         139.4457  140.6169  158.4286 C.3     1  UNL1        0.0245
     14 C         139.2043  142.7229  158.3464 C.3     1  UNL1        0.0245
     15 N         143.0595  140.7865  163.5472 N.pl3   1  UNL1       -0.3021
     16 H         143.8728  140.2534  163.3933 H       1  UNL1        0.1498
     17 C         144.5060  142.7531  164.4363 C.3     1  UNL1        0.0262
     18 C         143.1600  142.1418  164.1819 C.3     1  UNL1        0.0943
     19 C         141.9144  142.8860  164.5622 C.ar    1  UNL1       -0.0045
     20 C         141.3406  143.9131  163.6316 C.ar    1  UNL1       -0.0018
     21 C         140.0950  144.6573  164.0121 C.ar    1  UNL1        0.0111
     22 C         139.4232  144.3744  165.3229 C.ar    1  UNL1        0.0577
     23 CL        138.1776  145.1187  165.7034 Cl      1  UNL1       -0.0822
     24 C         139.9969  143.3474  166.2535 C.ar    1  UNL1        0.0111
     25 C         141.2425  142.6032  165.8732 C.ar    1  UNL1       -0.0018
     26 C         141.8008  138.5761  165.1378 C.3     1  UNL1        0.1384
     27 C         141.5962  139.1925  166.4900 C.ar    1  UNL1        0.0007
     28 C         142.7783  139.5003  167.3605 C.ar    1  UNL1       -0.0001
     29 C         142.5738  140.1167  168.7126 C.ar    1  UNL1        0.0294
     30 C         141.1871  140.4253  169.1942 C.ar    1  UNL1        0.1401
     31 F         140.9825  141.0418  170.5463 F       1  UNL1       -0.2042
     32 C         140.0050  140.1176  168.3236 C.ar    1  UNL1        0.0294
     33 C         140.2096  139.5012  166.9715 C.ar    1  UNL1       -0.0001
@<TRIPOS>BOND
     1    18    17    1
     2    18    15    1
     3    15     1    1
     4     1     2   ar
     5     2     3   ar
     6     3     4   ar
     7     4     5   ar
     8     5     6   ar
     9     6     7   ar
    10     7    11    1
    11    11    12    1
    12    11    13    1
    13    11    14    1
    14     4     8   ar
    15     8     9    2
    16     8    10   ar
    17    10    26    1
    18    26    27    1
    19    27    28   ar
    20    28    29   ar
    21    29    30   ar
    22    30    31    1
    23    30    32   ar
    24    32    33   ar
    25    18    19    1
    26    19    20   ar
    27    20    21   ar
    28    21    22   ar
    29    22    23    1
    30    22    24   ar
    31    24    25   ar
    32    10     1   ar
    33    33    27   ar
    34    25    19   ar
    35     7     3   ar
    36    15    16    1
@<TRIPOS>MOLECULE
*****
 33 36 0 0 0
SMALL
GASTEIGER

@<TRIPOS>ATOM
      1 C         141.9471  140.3462  163.7380 C.ar    1  UNL1        0.2019
      2 N         141.3921  140.5138  162.3546 N.ar    1  UNL1       -0.1961
      3 C         140.1144  139.8280  161.9709 C.ar    1  UNL1        0.1682
      4 C         139.3917  138.9747  162.9707 C.ar    1  UNL1        0.1125
      5 C         138.1620  138.4265  162.3094 C.ar    1  UNL1        0.1280
      6 N         138.1247  138.9410  160.9009 N.ar    1  UNL1       -0.1663
      7 N         139.3313  139.8072  160.6917 N.ar    1  UNL1       -0.2376
      8 C         139.9467  138.8071  164.3541 C.ar    1  UNL1        0.2676
      9 O         139.2240  137.9538  165.3540 O.2     1  UNL1       -0.2667
     10 N         141.2244  139.4930  164.7377 N.ar    1  UNL1       -0.2645
     11 C         139.6916  140.5263  159.4256 C.3     1  UNL1        0.0882
     12 C         140.3898  139.2963  158.9257 C.3     1  UNL1        0.0245
     13 C         138.9935  141.7562  159.9254 C.3     1  UNL1        0.0245
     14 C         140.0519  141.2453  158.1594 C.3     1  UNL1        0.0245
     15 N         143.2248  141.0320  164.1216 N.pl3   1  UNL1       -0.3021
     16 H         144.0739  140.5338  164.1093 H       1  UNL1        0.1498
     17 C         144.0900  142.9546  165.6400 C.3     1  UNL1        0.0262
     18 C         143.2089  142.4770  164.5239 C.3     1  UNL1        0.0943
     19 C         142.3118  143.4444  163.8103 C.ar    1  UNL1       -0.0045
     20 C         141.1146  144.0145  164.5116 C.ar    1  UNL1       -0.0018
     21 C         140.2175  144.9819  163.7978 C.ar    1  UNL1        0.0111
     22 C         140.5175  145.3791  162.3829 C.ar    1  UNL1        0.0577
     23 CL        139.6204  146.3465  161.6691 Cl      1  UNL1       -0.0822
     24 C         141.7147  144.8090  161.6816 C.ar    1  UNL1        0.0111
     25 C         142.6118  143.8416  162.3953 C.ar    1  UNL1       -0.0018
     26 C         141.7795  139.3254  166.1212 C.3     1  UNL1        0.1384
     27 C         141.7048  140.4582  167.1016 C.ar    1  UNL1        0.0007
     28 C         140.5971  141.4647  167.0017 C.ar    1  UNL1       -0.0001
     29 C         140.5224  142.5976  167.9821 C.ar    1  UNL1        0.0294
     30 C         141.5554  142.7239  169.0623 C.ar    1  UNL1        0.1401
     31 F         141.4808  143.8568  170.0427 F       1  UNL1       -0.2042
     32 C         142.6631  141.7174  169.1622 C.ar    1  UNL1        0.0294
     33 C         142.7378  140.5846  168.1818 C.ar    1  UNL1       -0.0001
@<TRIPOS>BOND
     1    18    17    1
     2    18    15    1
     3    15     1    1
     4     1     2   ar
     5     2     3   ar
     6     3     4   ar
     7     4     5   ar
     8     5     6   ar
     9     6     7   ar
    10     7    11    1
    11    11    12    1
    12    11    13    1
    13    11    14    1
    14     4     8   ar
    15     8     9    2
    16     8    10   ar
    17    10    26    1
    18    26    27    1
    19    27    28   ar
    20    28    29   ar
    21    29    30   ar
    22    30    31    1
    23    30    32   ar
    24    32    33   ar
    25    18    19    1
    26    19    20   ar
    27    20    21   ar
    28    21    22   ar
    29    22    23    1
    30    22    24   ar
    31    24    25   ar
    32    10     1   ar
    33    33    27   ar
    34    25    19   ar
    35     7     3   ar
    36    15    16    1
@<TRIPOS>MOLECULE
*****
 33 36 0 0 0
SMALL
GASTEIGER

@<TRIPOS>ATOM
      1 C         140.6550  142.9981  164.6524 C.ar    1  UNL1        0.2019
      2 N         141.0794  142.9493  166.0903 N.ar    1  UNL1       -0.1961
      3 C         140.5860  141.8478  166.9809 C.ar    1  UNL1        0.1682
      4 C         139.6682  140.7951  166.4336 C.ar    1  UNL1        0.1125
      5 C         139.3466  139.8382  167.5430 C.ar    1  UNL1        0.1280
      6 N         140.0657  140.2994  168.7760 N.ar    1  UNL1       -0.1663
      7 N         140.8317  141.5415  168.4285 N.ar    1  UNL1       -0.2376
      8 C         139.2438  140.8439  164.9957 C.ar    1  UNL1        0.2676
      9 O         138.3260  139.7913  164.4484 O.2     1  UNL1       -0.2667
     10 N         139.7373  141.9455  164.1051 N.ar    1  UNL1       -0.2645
     11 C         141.6922  142.3374  169.3645 C.3     1  UNL1        0.0882
     12 C         142.8526  141.4354  169.0646 C.3     1  UNL1        0.0245
     13 C         140.5318  143.2393  169.6644 C.3     1  UNL1        0.0245
     14 C         142.5527  143.1332  170.3004 C.3     1  UNL1        0.0245
     15 N         141.1485  144.0997  163.7618 N.pl3   1  UNL1       -0.3021
     16 H         140.5387  144.8230  163.4893 H       1  UNL1        0.1498
     17 C         143.6754  144.4895  164.2236 C.3     1  UNL1        0.0262
     18 C         142.5712  144.0992  163.2863 C.3     1  UNL1        0.0943
     19 C         142.8897  143.7084  161.8736 C.ar    1  UNL1       -0.0045
     20 C         144.1001  142.8719  161.5815 C.ar    1  UNL1       -0.0018
     21 C         144.4185  142.4812  160.1687 C.ar    1  UNL1        0.0111
     22 C         143.5266  142.9268  159.0481 C.ar    1  UNL1        0.0577
     23 CL        143.8451  142.5361  157.6353 Cl      1  UNL1       -0.0822
     24 C         142.3163  143.7633  159.3402 C.ar    1  UNL1        0.0111
     25 C         141.9978  144.1541  160.7529 C.ar    1  UNL1       -0.0018
     26 C         139.3129  141.9944  162.6672 C.3     1  UNL1        0.1384
     27 C         140.0985  141.2512  161.6277 C.ar    1  UNL1        0.0007
     28 C         139.6790  141.3068  160.1886 C.ar    1  UNL1       -0.0001
     29 C         140.4647  140.5637  159.1491 C.ar    1  UNL1        0.0294
     30 C         141.6698  139.7650  159.5487 C.ar    1  UNL1        0.1401
     31 F         142.4556  139.0218  158.5092 F       1  UNL1       -0.2042
     32 C         142.0893  139.7094  160.9877 C.ar    1  UNL1        0.0294
     33 C         141.3037  140.4525  162.0272 C.ar    1  UNL1       -0.0001
@<TRIPOS>BOND
     1    18    17    1
     2    18    15    1
     3    15     1    1
     4     1     2   ar
     5     2     3   ar
     6     3     4   ar
     7     4     5   ar
     8     5     6   ar
     9     6     7   ar
    10     7    11    1
    11    11    12    1
    12    11    13    1
    13    11    14    1
    14     4     8   ar
    15     8     9    2
    16     8    10   ar
    17    10    26    1
    18    26    27    1
    19    27    28   ar
    20    28    29   ar
    21    29    30   ar
    22    30    31    1
    23    30    32   ar
    24    32    33   ar
    25    18    19    1
    26    19    20   ar
    27    20    21   ar
    28    21    22   ar
    29    22    23    1
    30    22    24   ar
    31    24    25   ar
    32    10     1   ar
    33    33    27   ar
    34    25    19   ar
    35     7     3   ar
    36    15    16    1
