@<TRIPOS>MOLECULE
*****
 32 37 0 0 0
SMALL
GASTEIGER

@<TRIPOS>ATOM
      1 C         142.5488  136.7072  157.6906 C.3     1  UNL1        0.1161
      2 C         143.2778  135.4122  157.4865 C.3     1  UNL1        0.0510
      3 C         142.9071  134.5150  156.3430 C.2     1  UNL1       -0.0044
      4 C         141.8075  134.9128  155.4036 C.2     1  UNL1        0.0689
      5 N         141.6645  133.8320  154.3733 N.2     1  UNL1       -0.2526
      6 C         142.6757  132.7662  154.6760 C.2     1  UNL1        0.0627
      7 C         142.9963  131.4660  154.0005 C.3     1  UNL1        0.0717
      8 C         144.0850  130.5878  154.5423 C.2     1  UNL1       -0.0198
      9 C         144.8531  131.0099  155.7596 C.2     1  UNL1       -0.0042
     10 C         144.5324  132.3102  156.4352 C.2     1  UNL1        0.0006
     11 C         143.4437  133.1883  155.8934 C.2     1  UNL1        0.0111
     12 C         141.0785  136.2078  155.6077 C.3     1  UNL1        0.0947
     13 N         141.4492  137.1050  156.7512 N.3     1  UNL1       -0.2887
     14 H         140.6083  137.2248  157.3160 H       1  UNL1        0.1239
     15 C         143.2681  138.4579  161.0792 C.ar    1  UNL1        0.0947
     16 C         143.7118  139.5119  160.1086 C.ar    1  UNL1        0.1187
     17 N         143.4964  138.9843  158.7210 N.ar    1  UNL1       -0.2282
     18 C         142.9195  137.6044  158.8342 C.ar    1  UNL1        0.1318
     19 N         142.7784  137.2790  160.2916 N.ar    1  UNL1       -0.3385
     20 H         142.4262  136.4391  160.6656 H       1  UNL1        0.1672
     21 C         143.3853  138.7768  165.5664 C.ar    1  UNL1        0.0207
     22 C         144.4933  139.3643  164.7436 C.ar    1  UNL1        0.0032
     23 C         144.4542  139.2580  163.2479 C.ar    1  UNL1        0.0207
     24 C         143.3071  138.5642  162.5750 C.ar    1  UNL1        0.0984
     25 N         142.1991  137.9767  163.3978 N.ar    1  UNL1       -0.2423
     26 C         142.2381  138.0830  164.8935 C.ar    1  UNL1        0.0989
     27 C         139.9789  136.6056  154.6682 C.3     1  UNL1        0.0202
     28 C         140.1470  136.4091  153.1908 C.3     1  UNL1        0.0017
     29 C         139.0473  136.8069  152.2513 C.3     1  UNL1        0.0001
     30 C         137.7796  137.4012  152.7894 C.3     1  UNL1        0.0000
     31 C         137.6114  137.5977  154.2670 C.3     1  UNL1        0.0001
     32 C         138.7111  137.1999  155.2063 C.3     1  UNL1        0.0017
@<TRIPOS>BOND
     1    21    22   ar
     2    22    23   ar
     3    23    24   ar
     4    24    15    1
     5    15    16   ar
     6    16    17   ar
     7    17    18   ar
     8     1    18    1
     9     1     2    1
    10     2     3    1
    11     3     4    2
    12     4     5    1
    13     5     6    2
    14     6     7    1
    15     7     8    1
    16     8     9    2
    17     9    10    1
    18    10    11    2
    19     4    12    1
    20    12    27    1
    21    27    28    1
    22    28    29    1
    23    29    30    1
    24    30    31    1
    25    31    32    1
    26    12    13    1
    27    18    19   ar
    28    24    25   ar
    29    25    26   ar
    30    26    21   ar
    31    19    15   ar
    32    13     1    1
    33    11     3    1
    34    32    27    1
    35    11     6    1
    36    13    14    1
    37    19    20    1
@<TRIPOS>MOLECULE
*****
 32 37 0 0 0
SMALL
GASTEIGER

@<TRIPOS>ATOM
      1 C         142.2649  137.5826  157.2914 C.3     1  UNL1        0.1161
      2 C         143.0436  136.3006  157.2788 C.3     1  UNL1        0.0510
      3 C         142.6705  135.2058  156.3238 C.2     1  UNL1       -0.0044
      4 C         141.5187  135.3930  155.3813 C.2     1  UNL1        0.0689
      5 N         141.3855  134.1457  154.5588 N.2     1  UNL1       -0.2526
      6 C         142.4549  133.1877  154.9929 C.2     1  UNL1        0.0627
      7 C         142.8082  131.8034  154.5358 C.3     1  UNL1        0.0717
      8 C         143.9556  131.0743  155.1696 C.2     1  UNL1       -0.0198
      9 C         144.7498  131.7295  156.2605 C.2     1  UNL1       -0.0042
     10 C         144.3966  133.1138  156.7175 C.2     1  UNL1        0.0006
     11 C         143.2491  133.8429  156.0837 C.2     1  UNL1        0.0111
     12 C         140.7400  136.6750  155.3939 C.3     1  UNL1        0.0947
     13 N         141.1131  137.7698  156.3489 N.3     1  UNL1       -0.2887
     14 H         140.2900  137.9533  156.9227 H       1  UNL1        0.1239
     15 C         143.5069  139.8544  160.1831 C.ar    1  UNL1        0.0947
     16 C         142.9178  140.8698  159.2493 C.ar    1  UNL1        0.1187
     17 N         142.3809  140.1424  158.0525 N.ar    1  UNL1       -0.2282
     18 C         142.6381  138.6775  158.2465 C.ar    1  UNL1        0.1318
     19 N         143.3340  138.4994  159.5633 N.ar    1  UNL1       -0.3385
     20 H         143.6261  137.6435  159.9524 H       1  UNL1        0.1672
     21 C         145.4514  140.7208  164.1477 C.ar    1  UNL1        0.0207
     22 C         144.6801  139.4492  163.9526 C.ar    1  UNL1        0.0032
     23 C         144.0320  139.1604  162.6311 C.ar    1  UNL1        0.0207
     24 C         144.1551  140.1432  161.5047 C.ar    1  UNL1        0.0984
     25 N         144.9264  141.4148  161.6997 N.ar    1  UNL1       -0.2423
     26 C         145.5746  141.7036  163.0213 C.ar    1  UNL1        0.0989
     27 C         139.5882  136.8622  154.4514 C.3     1  UNL1        0.0202
     28 C         139.7351  136.4933  153.0050 C.3     1  UNL1        0.0017
     29 C         138.5832  136.6806  152.0625 C.3     1  UNL1        0.0001
     30 C         137.2845  137.2366  152.5665 C.3     1  UNL1        0.0000
     31 C         137.1376  137.6055  154.0130 C.3     1  UNL1        0.0001
     32 C         138.2894  137.4183  154.9554 C.3     1  UNL1        0.0017
@<TRIPOS>BOND
     1    21    22   ar
     2    22    23   ar
     3    23    24   ar
     4    24    15    1
     5    15    16   ar
     6    16    17   ar
     7    17    18   ar
     8     1    18    1
     9     1     2    1
    10     2     3    1
    11     3     4    2
    12     4     5    1
    13     5     6    2
    14     6     7    1
    15     7     8    1
    16     8     9    2
    17     9    10    1
    18    10    11    2
    19     4    12    1
    20    12    27    1
    21    27    28    1
    22    28    29    1
    23    29    30    1
    24    30    31    1
    25    31    32    1
    26    12    13    1
    27    18    19   ar
    28    24    25   ar
    29    25    26   ar
    30    26    21   ar
    31    19    15   ar
    32    13     1    1
    33    11     3    1
    34    32    27    1
    35    11     6    1
    36    13    14    1
    37    19    20    1
@<TRIPOS>MOLECULE
*****
 32 37 0 0 0
SMALL
GASTEIGER

@<TRIPOS>ATOM
      1 C         140.1159  136.7602  155.4182 C.3     1  UNL1        0.1161
      2 C         140.6772  135.4306  155.0091 C.3     1  UNL1        0.0510
      3 C         141.8988  134.8903  155.6916 C.2     1  UNL1       -0.0044
      4 C         142.5590  135.6794  156.7831 C.2     1  UNL1        0.0689
      5 N         143.7420  134.8965  157.2705 N.2     1  UNL1       -0.2526
      6 C         143.8129  133.6235  156.4803 C.2     1  UNL1        0.0627
      7 C         144.7676  132.4674  156.5232 C.3     1  UNL1        0.0717
      8 C         144.5831  131.3074  155.5903 C.2     1  UNL1       -0.0198
      9 C         143.4439  131.3035  154.6145 C.2     1  UNL1       -0.0042
     10 C         142.4892  132.4597  154.5715 C.2     1  UNL1        0.0006
     11 C         142.6737  133.6196  155.5044 C.2     1  UNL1        0.0111
     12 C         141.9977  137.0090  157.1921 C.3     1  UNL1        0.0947
     13 N         140.7761  137.5493  156.5096 N.3     1  UNL1       -0.2887
     14 H         141.0380  138.4486  156.1057 H       1  UNL1        0.1239
     15 C         136.8373  138.5149  154.3057 C.ar    1  UNL1        0.0947
     16 C         137.1916  137.7493  153.0653 C.ar    1  UNL1        0.1187
     17 N         138.4629  136.9989  153.3311 N.ar    1  UNL1       -0.2282
     18 C         138.8943  137.3006  154.7357 C.ar    1  UNL1        0.1318
     19 N         137.8897  138.2375  155.3380 N.ar    1  UNL1       -0.3385
     20 H         137.9163  138.6057  156.2507 H       1  UNL1        0.1672
     21 C         133.2478  141.1763  154.8365 C.ar    1  UNL1        0.0207
     22 C         134.1604  141.3733  153.6625 C.ar    1  UNL1        0.0032
     23 C         135.3569  140.4861  153.4856 C.ar    1  UNL1        0.0207
     24 C         135.6408  139.4020  154.4826 C.ar    1  UNL1        0.0984
     25 N         134.7282  139.2051  155.6566 N.ar    1  UNL1       -0.2423
     26 C         133.5317  140.0922  155.8336 C.ar    1  UNL1        0.0989
     27 C         142.6579  137.7981  158.2836 C.3     1  UNL1        0.0202
     28 C         142.8404  137.1909  159.6429 C.3     1  UNL1        0.0017
     29 C         143.5007  137.9801  160.7344 C.3     1  UNL1        0.0001
     30 C         143.9784  139.3765  160.4664 C.3     1  UNL1        0.0000
     31 C         143.7958  139.9838  159.1070 C.3     1  UNL1        0.0001
     32 C         143.1356  139.1946  158.0157 C.3     1  UNL1        0.0017
@<TRIPOS>BOND
     1    21    22   ar
     2    22    23   ar
     3    23    24   ar
     4    24    15    1
     5    15    16   ar
     6    16    17   ar
     7    17    18   ar
     8     1    18    1
     9     1     2    1
    10     2     3    1
    11     3     4    2
    12     4     5    1
    13     5     6    2
    14     6     7    1
    15     7     8    1
    16     8     9    2
    17     9    10    1
    18    10    11    2
    19     4    12    1
    20    12    27    1
    21    27    28    1
    22    28    29    1
    23    29    30    1
    24    30    31    1
    25    31    32    1
    26    12    13    1
    27    18    19   ar
    28    24    25   ar
    29    25    26   ar
    30    26    21   ar
    31    19    15   ar
    32    13     1    1
    33    11     3    1
    34    32    27    1
    35    11     6    1
    36    13    14    1
    37    19    20    1
@<TRIPOS>MOLECULE
*****
 32 37 0 0 0
SMALL
GASTEIGER

@<TRIPOS>ATOM
      1 C         139.5828  140.9953  160.5490 C.3     1  UNL1        0.1161
      2 C         140.6337  142.0222  160.8507 C.3     1  UNL1        0.0510
      3 C         141.1671  142.1619  162.2457 C.2     1  UNL1       -0.0044
      4 C         140.6496  141.2747  163.3389 C.2     1  UNL1        0.0689
      5 N         141.3596  141.6412  164.6083 N.2     1  UNL1       -0.2526
      6 C         142.3160  142.7548  164.2997 C.2     1  UNL1        0.0627
      7 C         143.2797  143.5173  165.1597 C.3     1  UNL1        0.0717
      8 C         144.1246  144.6017  164.5595 C.2     1  UNL1       -0.0198
      9 C         144.0056  144.9235  163.0992 C.2     1  UNL1       -0.0042
     10 C         143.0418  144.1610  162.2393 C.2     1  UNL1        0.0006
     11 C         142.1970  143.0766  162.8395 C.2     1  UNL1        0.0111
     12 C         139.5986  140.2478  163.0371 C.3     1  UNL1        0.0947
     13 N         139.0652  140.1081  161.6421 N.3     1  UNL1       -0.2887
     14 H         138.0584  140.2628  161.6950 H       1  UNL1        0.1239
     15 C         137.5366  140.7862  157.2573 C.ar    1  UNL1        0.0947
     16 C         138.9205  140.4951  156.7573 C.ar    1  UNL1        0.1187
     17 N         139.8554  140.5379  157.9295 N.ar    1  UNL1       -0.2282
     18 C         139.0494  140.8556  159.1539 C.ar    1  UNL1        0.1318
     19 N         137.6162  141.0090  158.7386 N.ar    1  UNL1       -0.3385
     20 H         136.8606  141.2191  159.3336 H       1  UNL1        0.1672
     21 C         133.8016  140.9607  154.7534 C.ar    1  UNL1        0.0207
     22 C         135.0622  141.6114  154.2662 C.ar    1  UNL1        0.0032
     23 C         136.3072  141.5532  155.1008 C.ar    1  UNL1        0.0207
     24 C         136.2915  140.8444  156.4227 C.ar    1  UNL1        0.0984
     25 N         135.0309  140.1937  156.9099 N.ar    1  UNL1       -0.2423
     26 C         133.7860  140.2518  156.0752 C.ar    1  UNL1        0.0989
     27 C         139.0811  139.3607  164.1303 C.3     1  UNL1        0.0202
     28 C         139.2864  137.8769  164.0525 C.3     1  UNL1        0.0017
     29 C         138.7688  136.9898  165.1457 C.3     1  UNL1        0.0001
     30 C         138.0459  137.5864  166.3167 C.3     1  UNL1        0.0000
     31 C         137.8405  139.0703  166.3946 C.3     1  UNL1        0.0001
     32 C         138.3581  139.9574  165.3014 C.3     1  UNL1        0.0017
@<TRIPOS>BOND
     1    21    22   ar
     2    22    23   ar
     3    23    24   ar
     4    24    15    1
     5    15    16   ar
     6    16    17   ar
     7    17    18   ar
     8     1    18    1
     9     1     2    1
    10     2     3    1
    11     3     4    2
    12     4     5    1
    13     5     6    2
    14     6     7    1
    15     7     8    1
    16     8     9    2
    17     9    10    1
    18    10    11    2
    19     4    12    1
    20    12    27    1
    21    27    28    1
    22    28    29    1
    23    29    30    1
    24    30    31    1
    25    31    32    1
    26    12    13    1
    27    18    19   ar
    28    24    25   ar
    29    25    26   ar
    30    26    21   ar
    31    19    15   ar
    32    13     1    1
    33    11     3    1
    34    32    27    1
    35    11     6    1
    36    13    14    1
    37    19    20    1
@<TRIPOS>MOLECULE
*****
 32 37 0 0 0
SMALL
GASTEIGER

@<TRIPOS>ATOM
      1 C         141.9375  139.5706  161.1759 C.3     1  UNL1        0.1161
      2 C         140.9714  138.8034  162.0292 C.3     1  UNL1        0.0510
      3 C         140.6204  139.3029  163.3993 C.2     1  UNL1       -0.0044
      4 C         141.2355  140.5696  163.9161 C.2     1  UNL1        0.0689
      5 N         140.7023  140.8141  165.2967 N.2     1  UNL1       -0.2526
      6 C         139.7578  139.6984  165.6331 C.2     1  UNL1        0.0627
      7 C         138.9373  139.4123  166.8558 C.3     1  UNL1        0.0717
      8 C         138.0661  138.1923  166.9057 C.2     1  UNL1       -0.0198
      9 C         138.0155  137.2583  165.7330 C.2     1  UNL1       -0.0042
     10 C         138.8360  137.5444  164.5104 C.2     1  UNL1        0.0006
     11 C         139.7071  138.7645  164.4605 C.2     1  UNL1        0.0111
     12 C         142.2015  141.3369  163.0628 C.3     1  UNL1        0.0947
     13 N         142.5525  140.8373  161.6927 N.3     1  UNL1       -0.2887
     14 H         143.5633  140.7008  161.6790 H       1  UNL1        0.1239
     15 C         142.7343  137.5958  157.9308 C.ar    1  UNL1        0.0947
     16 C         142.9228  139.0087  157.4639 C.ar    1  UNL1        0.1187
     17 N         142.6473  139.9205  158.6226 N.ar    1  UNL1       -0.2282
     18 C         142.2885  139.0711  159.8057 C.ar    1  UNL1        0.1318
     19 N         142.3423  137.6343  159.3782 N.ar    1  UNL1       -0.3385
     20 H         142.1534  136.8537  159.9475 H       1  UNL1        0.1672
     21 C         143.2538  133.8917  155.4288 C.ar    1  UNL1        0.0207
     22 C         142.9642  135.2076  154.7695 C.ar    1  UNL1        0.0032
     23 C         142.7911  136.4422  155.6035 C.ar    1  UNL1        0.0207
     24 C         142.9075  136.3611  157.0968 C.ar    1  UNL1        0.0984
     25 N         143.1971  135.0452  157.7561 N.ar    1  UNL1       -0.2423
     26 C         143.3702  133.8106  156.9221 C.ar    1  UNL1        0.0989
     27 C         142.8166  142.6036  163.5796 C.3     1  UNL1        0.0202
     28 C         142.4106  143.9257  162.9991 C.3     1  UNL1        0.0017
     29 C         143.0257  145.1924  163.5159 C.3     1  UNL1        0.0001
     30 C         144.0468  145.1370  164.6133 C.3     1  UNL1        0.0000
     31 C         144.4528  143.8148  165.1939 C.3     1  UNL1        0.0001
     32 C         143.8378  142.5482  164.6770 C.3     1  UNL1        0.0017
@<TRIPOS>BOND
     1    21    22   ar
     2    22    23   ar
     3    23    24   ar
     4    24    15    1
     5    15    16   ar
     6    16    17   ar
     7    17    18   ar
     8     1    18    1
     9     1     2    1
    10     2     3    1
    11     3     4    2
    12     4     5    1
    13     5     6    2
    14     6     7    1
    15     7     8    1
    16     8     9    2
    17     9    10    1
    18    10    11    2
    19     4    12    1
    20    12    27    1
    21    27    28    1
    22    28    29    1
    23    29    30    1
    24    30    31    1
    25    31    32    1
    26    12    13    1
    27    18    19   ar
    28    24    25   ar
    29    25    26   ar
    30    26    21   ar
    31    19    15   ar
    32    13     1    1
    33    11     3    1
    34    32    27    1
    35    11     6    1
    36    13    14    1
    37    19    20    1
@<TRIPOS>MOLECULE
*****
 32 37 0 0 0
SMALL
GASTEIGER

@<TRIPOS>ATOM
      1 C         139.1482  141.3192  160.8237 C.3     1  UNL1        0.1161
      2 C         140.2562  142.2946  161.0906 C.3     1  UNL1        0.0510
      3 C         140.9197  142.3263  162.4354 C.2     1  UNL1       -0.0044
      4 C         140.4754  141.3827  163.5134 C.2     1  UNL1        0.0689
      5 N         141.3108  141.6441  164.7315 N.2     1  UNL1       -0.2526
      6 C         142.2714  142.7493  164.4063 C.2     1  UNL1        0.0627
      7 C         143.3350  143.4261  165.2191 C.3     1  UNL1        0.0717
      8 C         144.1569  144.5247  164.6128 C.2     1  UNL1       -0.0198
      9 C         143.9152  144.9464  163.1937 C.2     1  UNL1       -0.0042
     10 C         142.8516  144.2695  162.3809 C.2     1  UNL1        0.0006
     11 C         142.0297  143.1709  162.9873 C.2     1  UNL1        0.0111
     12 C         139.3675  140.4073  163.2465 C.3     1  UNL1        0.0947
     13 N         138.7039  140.3756  161.9017 N.3     1  UNL1       -0.2887
     14 H         137.7119  140.5538  162.0585 H       1  UNL1        0.1239
     15 C         137.6726  141.9491  157.2894 C.ar    1  UNL1        0.0947
     16 C         137.2545  140.5286  157.5291 C.ar    1  UNL1        0.1187
     17 N         137.7564  140.1198  158.8822 N.ar    1  UNL1       -0.2282
     18 C         138.4847  141.2875  159.4788 C.ar    1  UNL1        0.1318
     19 N         138.4329  142.4181  158.4944 N.ar    1  UNL1       -0.3385
     20 H         138.8285  143.3112  158.6175 H       1  UNL1        0.1672
     21 C         136.7995  144.3770  153.6026 C.ar    1  UNL1        0.0207
     22 C         136.2232  142.9998  153.7475 C.ar    1  UNL1        0.0032
     23 C         136.5142  142.1905  154.9764 C.ar    1  UNL1        0.0207
     24 C         137.3816  142.7585  156.0604 C.ar    1  UNL1        0.0984
     25 N         137.9579  144.1357  155.9155 N.ar    1  UNL1       -0.2423
     26 C         137.6668  144.9450  154.6866 C.ar    1  UNL1        0.0989
     27 C         138.9232  139.4636  164.3245 C.3     1  UNL1        0.0202
     28 C         138.2981  139.9985  165.5787 C.3     1  UNL1        0.0017
     29 C         137.8537  139.0547  166.6567 C.3     1  UNL1        0.0001
     30 C         138.0345  137.5761  166.4804 C.3     1  UNL1        0.0000
     31 C         138.6596  137.0412  165.2261 C.3     1  UNL1        0.0001
     32 C         139.1039  137.9849  164.1482 C.3     1  UNL1        0.0017
@<TRIPOS>BOND
     1    21    22   ar
     2    22    23   ar
     3    23    24   ar
     4    24    15    1
     5    15    16   ar
     6    16    17   ar
     7    17    18   ar
     8     1    18    1
     9     1     2    1
    10     2     3    1
    11     3     4    2
    12     4     5    1
    13     5     6    2
    14     6     7    1
    15     7     8    1
    16     8     9    2
    17     9    10    1
    18    10    11    2
    19     4    12    1
    20    12    27    1
    21    27    28    1
    22    28    29    1
    23    29    30    1
    24    30    31    1
    25    31    32    1
    26    12    13    1
    27    18    19   ar
    28    24    25   ar
    29    25    26   ar
    30    26    21   ar
    31    19    15   ar
    32    13     1    1
    33    11     3    1
    34    32    27    1
    35    11     6    1
    36    13    14    1
    37    19    20    1
@<TRIPOS>MOLECULE
*****
 32 37 0 0 0
SMALL
GASTEIGER

@<TRIPOS>ATOM
      1 C         139.9769  143.8464  158.3494 C.3     1  UNL1        0.1161
      2 C         140.6712  142.5339  158.1367 C.3     1  UNL1        0.0510
      3 C         140.9626  141.6413  159.3065 C.2     1  UNL1       -0.0044
      4 C         140.5598  142.0614  160.6890 C.2     1  UNL1        0.0689
      5 N         140.9766  140.9803  161.6417 N.2     1  UNL1       -0.2526
      6 C         141.6369  139.8922  160.8481 C.2     1  UNL1        0.0627
      7 C         142.2450  138.5822  161.2531 C.3     1  UNL1        0.0717
      8 C         142.8444  137.6807  160.2149 C.2     1  UNL1       -0.0198
      9 C         142.8358  138.0893  158.7716 C.2     1  UNL1       -0.0042
     10 C         142.2278  139.3993  158.3666 C.2     1  UNL1        0.0006
     11 C         141.6283  140.3007  159.4048 C.2     1  UNL1        0.0111
     12 C         139.8655  143.3739  160.9017 C.3     1  UNL1        0.0947
     13 N         139.5741  144.2665  159.7319 N.3     1  UNL1       -0.2887
     14 H         140.0389  145.1554  159.9168 H       1  UNL1        0.1239
     15 C         139.3817  146.7145  155.8028 C.ar    1  UNL1        0.0947
     16 C         139.0925  145.5105  154.9562 C.ar    1  UNL1        0.1187
     17 N         139.2802  144.2895  155.8071 N.ar    1  UNL1       -0.2282
     18 C         139.6855  144.7390  157.1795 C.ar    1  UNL1        0.1318
     19 N         139.7482  146.2376  157.1769 N.ar    1  UNL1       -0.3385
     20 H         139.9878  146.8082  157.9427 H       1  UNL1        0.1672
     21 C         139.1844  151.0038  154.4565 C.ar    1  UNL1        0.0207
     22 C         139.9120  149.9894  153.6248 C.ar    1  UNL1        0.0032
     23 C         139.9777  148.5597  154.0736 C.ar    1  UNL1        0.0207
     24 C         139.3159  148.1443  155.3540 C.ar    1  UNL1        0.0984
     25 N         138.5884  149.1587  156.1856 N.ar    1  UNL1       -0.2423
     26 C         138.5226  150.5884  155.7369 C.ar    1  UNL1        0.0989
     27 C         139.4627  143.7939  162.2842 C.3     1  UNL1        0.0202
     28 C         140.4913  144.3317  163.2342 C.3     1  UNL1        0.0017
     29 C         140.0884  144.7517  164.6168 C.3     1  UNL1        0.0001
     30 C         138.6569  144.6340  165.0492 C.3     1  UNL1        0.0000
     31 C         137.6283  144.0962  164.0991 C.3     1  UNL1        0.0001
     32 C         138.0312  143.6762  162.7166 C.3     1  UNL1        0.0017
@<TRIPOS>BOND
     1    21    22   ar
     2    22    23   ar
     3    23    24   ar
     4    24    15    1
     5    15    16   ar
     6    16    17   ar
     7    17    18   ar
     8     1    18    1
     9     1     2    1
    10     2     3    1
    11     3     4    2
    12     4     5    1
    13     5     6    2
    14     6     7    1
    15     7     8    1
    16     8     9    2
    17     9    10    1
    18    10    11    2
    19     4    12    1
    20    12    27    1
    21    27    28    1
    22    28    29    1
    23    29    30    1
    24    30    31    1
    25    31    32    1
    26    12    13    1
    27    18    19   ar
    28    24    25   ar
    29    25    26   ar
    30    26    21   ar
    31    19    15   ar
    32    13     1    1
    33    11     3    1
    34    32    27    1
    35    11     6    1
    36    13    14    1
    37    19    20    1
@<TRIPOS>MOLECULE
*****
 32 37 0 0 0
SMALL
GASTEIGER

@<TRIPOS>ATOM
      1 C         141.3593  139.4025  161.6068 C.3     1  UNL1        0.1161
      2 C         140.4286  138.7419  162.5802 C.3     1  UNL1        0.0510
      3 C         140.2086  139.3458  163.9355 C.2     1  UNL1       -0.0044
      4 C         140.9194  140.6102  164.3175 C.2     1  UNL1        0.0689
      5 N         140.5072  140.9698  165.7142 N.2     1  UNL1       -0.2526
      6 C         139.5417  139.9275  166.1955 C.2     1  UNL1        0.0627
      7 C         138.8068  139.7628  167.4926 C.3     1  UNL1        0.0717
      8 C         137.8873  138.5944  167.6904 C.2     1  UNL1       -0.0198
      9 C         137.7027  137.5906  166.5911 C.2     1  UNL1       -0.0042
     10 C         138.4377  137.7554  165.2940 C.2     1  UNL1        0.0006
     11 C         139.3572  138.9238  165.0961 C.2     1  UNL1        0.0111
     12 C         141.8501  141.2708  163.3442 C.3     1  UNL1        0.0947
     13 N         142.0701  140.6670  161.9888 N.3     1  UNL1       -0.2887
     14 H         143.0693  140.4787  161.9090 H       1  UNL1        0.1239
     15 C         141.1953  137.9824  157.9982 C.ar    1  UNL1        0.0947
     16 C         142.6397  137.7563  158.3333 C.ar    1  UNL1        0.1187
     17 N         142.8770  138.2607  159.7259 N.ar    1  UNL1       -0.2282
     18 C         141.5792  138.7986  160.2514 C.ar    1  UNL1        0.1318
     19 N         140.5398  138.6266  159.1837 N.ar    1  UNL1       -0.3385
     20 H         139.5935  138.8903  159.2495 H       1  UNL1        0.1672
     21 C         139.1817  136.9155  154.1179 C.ar    1  UNL1        0.0207
     22 C         140.4899  136.2794  154.4837 C.ar    1  UNL1        0.0032
     23 C         141.1611  136.6350  155.7771 C.ar    1  UNL1        0.0207
     24 C         140.5240  137.6268  156.7047 C.ar    1  UNL1        0.0984
     25 N         139.2158  138.2630  156.3389 N.ar    1  UNL1       -0.2423
     26 C         138.5447  137.9073  155.0455 C.ar    1  UNL1        0.0989
     27 C         142.5609  142.5353  163.7261 C.3     1  UNL1        0.0202
     28 C         143.7123  142.4877  164.6862 C.3     1  UNL1        0.0017
     29 C         144.4231  143.7522  165.0682 C.3     1  UNL1        0.0001
     30 C         143.9824  145.0643  164.4900 C.3     1  UNL1        0.0000
     31 C         142.8309  145.1119  163.5299 C.3     1  UNL1        0.0001
     32 C         142.1202  143.8474  163.1480 C.3     1  UNL1        0.0017
@<TRIPOS>BOND
     1    21    22   ar
     2    22    23   ar
     3    23    24   ar
     4    24    15    1
     5    15    16   ar
     6    16    17   ar
     7    17    18   ar
     8     1    18    1
     9     1     2    1
    10     2     3    1
    11     3     4    2
    12     4     5    1
    13     5     6    2
    14     6     7    1
    15     7     8    1
    16     8     9    2
    17     9    10    1
    18    10    11    2
    19     4    12    1
    20    12    27    1
    21    27    28    1
    22    28    29    1
    23    29    30    1
    24    30    31    1
    25    31    32    1
    26    12    13    1
    27    18    19   ar
    28    24    25   ar
    29    25    26   ar
    30    26    21   ar
    31    19    15   ar
    32    13     1    1
    33    11     3    1
    34    32    27    1
    35    11     6    1
    36    13    14    1
    37    19    20    1
@<TRIPOS>MOLECULE
*****
 32 37 0 0 0
SMALL
GASTEIGER

@<TRIPOS>ATOM
      1 C         141.3412  138.7778  158.4050 C.3     1  UNL1        0.1161
      2 C         142.4040  139.8262  158.2592 C.3     1  UNL1        0.0510
      3 C         143.4653  139.6774  157.2097 C.2     1  UNL1       -0.0044
      4 C         143.4638  138.4801  156.3061 C.2     1  UNL1        0.0689
      5 N         144.6297  138.6041  155.3706 N.2     1  UNL1       -0.2526
      6 C         145.3518  139.8780  155.6959 C.2     1  UNL1        0.0627
      7 C         146.5716  140.5196  155.1041 C.3     1  UNL1        0.0717
      8 C         147.0717  141.8246  155.6489 C.2     1  UNL1       -0.0198
      9 C         146.3520  142.4880  156.7856 C.2     1  UNL1       -0.0042
     10 C         145.1322  141.8463  157.3774 C.2     1  UNL1        0.0006
     11 C         144.6321  140.5413  156.8326 C.2     1  UNL1        0.0111
     12 C         142.4010  137.4317  156.4520 C.3     1  UNL1        0.0947
     13 N         141.3397  137.5805  157.5014 N.3     1  UNL1       -0.2887
     14 H         141.4020  136.7583  158.1019 H       1  UNL1        0.1239
     15 C         139.1490  138.9897  161.6011 C.ar    1  UNL1        0.0947
     16 C         138.1443  139.3218  160.5380 C.ar    1  UNL1        0.1187
     17 N         138.8432  139.2829  159.2113 N.ar    1  UNL1       -0.2282
     18 C         140.2798  138.9267  159.4546 C.ar    1  UNL1        0.1318
     19 N         140.4688  138.7454  160.9315 N.ar    1  UNL1       -0.3385
     20 H         141.3113  138.5079  161.3822 H       1  UNL1        0.1672
     21 C         138.3449  138.7652  166.0230 C.ar    1  UNL1        0.0207
     22 C         138.8198  137.5491  165.2844 C.ar    1  UNL1        0.0032
     23 C         139.0879  137.6239  163.8105 C.ar    1  UNL1        0.0207
     24 C         138.8810  138.9149  163.0751 C.ar    1  UNL1        0.0984
     25 N         138.4060  140.1309  163.8137 N.ar    1  UNL1       -0.2423
     26 C         138.1380  140.0561  165.2877 C.ar    1  UNL1        0.0989
     27 C         142.3996  136.2344  155.5484 C.3     1  UNL1        0.0202
     28 C         141.9638  136.3734  154.1199 C.3     1  UNL1        0.0017
     29 C         141.9623  135.1760  153.2163 C.3     1  UNL1        0.0001
     30 C         142.3967  133.8397  153.7412 C.3     1  UNL1        0.0000
     31 C         142.8324  133.7007  155.1698 C.3     1  UNL1        0.0001
     32 C         142.8339  134.8980  156.0733 C.3     1  UNL1        0.0017
@<TRIPOS>BOND
     1    21    22   ar
     2    22    23   ar
     3    23    24   ar
     4    24    15    1
     5    15    16   ar
     6    16    17   ar
     7    17    18   ar
     8     1    18    1
     9     1     2    1
    10     2     3    1
    11     3     4    2
    12     4     5    1
    13     5     6    2
    14     6     7    1
    15     7     8    1
    16     8     9    2
    17     9    10    1
    18    10    11    2
    19     4    12    1
    20    12    27    1
    21    27    28    1
    22    28    29    1
    23    29    30    1
    24    30    31    1
    25    31    32    1
    26    12    13    1
    27    18    19   ar
    28    24    25   ar
    29    25    26   ar
    30    26    21   ar
    31    19    15   ar
    32    13     1    1
    33    11     3    1
    34    32    27    1
    35    11     6    1
    36    13    14    1
    37    19    20    1
