@<TRIPOS>MOLECULE
*****
 33 35 0 0 0
SMALL
GASTEIGER

@<TRIPOS>ATOM
      1 N         139.0601  142.6191  163.9794 N.am    1  UNL1       -0.2438
      2 C         140.1906  142.7113  164.9609 C.3     1  UNL1        0.1009
      3 C         140.3623  141.6520  166.0089 C.3     1  UNL1        0.0661
      4 C         139.4034  140.5004  166.0755 C.3     1  UNL1        0.1582
      5 O         138.2728  140.4082  165.0939 O.3     1  UNL1       -0.4375
      6 C         138.1012  141.4675  164.0459 C.2     1  UNL1        0.4051
      7 O         136.9706  141.3753  163.0644 O.2     1  UNL1       -0.2262
      8 C         140.3103  140.1505  167.2179 C.ar    1  UNL1        0.0139
      9 C         139.7892  140.1762  168.6242 C.ar    1  UNL1        0.0014
     10 C         140.6961  139.8263  169.7666 C.ar    1  UNL1        0.0294
     11 C         142.1241  139.4507  169.5026 C.ar    1  UNL1        0.1401
     12 F         143.0310  139.1008  170.6451 F       1  UNL1       -0.2042
     13 C         142.6453  139.4250  168.0963 C.ar    1  UNL1        0.0294
     14 C         141.7383  139.7749  166.9539 C.ar    1  UNL1        0.0014
     15 C         137.7146  144.6102  162.9920 C.3     1  UNL1        0.0265
     16 C         138.8885  143.6784  162.9313 C.3     1  UNL1        0.1011
     17 C         139.8908  143.8058  161.8226 C.ar    1  UNL1       -0.0040
     18 C         140.6485  142.5991  161.3541 C.ar    1  UNL1        0.0004
     19 C         141.6507  142.7266  160.2455 C.ar    1  UNL1        0.0368
     20 C         141.8953  144.0609  159.6053 C.ar    1  UNL1        0.1443
     21 C         141.1376  145.2677  160.0737 C.ar    1  UNL1        0.0368
     22 C         140.1353  145.1401  161.1824 C.ar    1  UNL1        0.0004
     23 O         142.8976  144.1883  158.4965 O.3     1  UNL1       -0.4236
     24 C         143.7849  143.0295  158.1508 C.3     1  UNL1        0.5087
     25 F         145.0041  142.7456  158.9774 F       1  UNL1       -0.1550
     26 F         143.4533  142.1545  156.9784 F       1  UNL1       -0.1550
     27 C         138.7594  139.2273  166.5388 C.3     1  UNL1        0.0541
     28 C         138.5468  138.0997  165.5728 C.3     1  UNL1        0.0887
     29 C         139.5650  137.8234  164.5065 C.2     1  UNL1        0.2195
     30 N         139.2812  138.2005  163.0828 N.am    1  UNL1       -0.3288
     31 O         140.8670  137.1699  164.8641 O.2     1  UNL1       -0.2753
     32 H         138.4266  138.6294  162.8481 H       1  UNL1        0.1449
     33 H         139.9494  138.0192  162.3829 H       1  UNL1        0.1449
@<TRIPOS>BOND
     1    16    15    1
     2    16    17    1
     3    17    18   ar
     4    18    19   ar
     5    19    20   ar
     6    20    23    1
     7    23    24    1
     8    24    25    1
     9    24    26    1
    10    20    21   ar
    11    21    22   ar
    12    16     1    1
    13     1     2    1
    14     2     3    1
    15     3     4    1
    16     4    27    1
    17    27    28    1
    18    28    29    1
    19    29    30   am
    20    29    31    2
    21     4     8    1
    22     8     9   ar
    23     9    10   ar
    24    10    11   ar
    25    11    12    1
    26    11    13   ar
    27    13    14   ar
    28     4     5    1
    29     5     6    1
    30     6     7    2
    31    22    17   ar
    32     6     1   am
    33    14     8   ar
    34    30    32    1
    35    30    33    1
@<TRIPOS>MOLECULE
*****
 33 35 0 0 0
SMALL
GASTEIGER

@<TRIPOS>ATOM
      1 N         142.1484  142.5715  163.2511 N.am    1  UNL1       -0.2438
      2 C         140.7898  142.4288  163.8705 C.3     1  UNL1        0.1009
      3 C         140.4043  141.1458  164.5453 C.3     1  UNL1        0.0661
      4 C         141.3773  140.0056  164.6006 C.3     1  UNL1        0.1582
      5 O         142.7360  140.1484  163.9812 O.3     1  UNL1       -0.4375
      6 C         143.1216  141.4313  163.3064 C.2     1  UNL1        0.4051
      7 O         144.4802  141.5741  162.6870 O.2     1  UNL1       -0.2262
      8 C         140.2166  139.3929  165.3269 C.ar    1  UNL1        0.0139
      9 C         139.6796  140.0440  166.5669 C.ar    1  UNL1        0.0014
     10 C         138.5189  139.4314  167.2932 C.ar    1  UNL1        0.0294
     11 C         137.8953  138.1676  166.7794 C.ar    1  UNL1        0.1401
     12 F         136.7345  137.5550  167.5057 F       1  UNL1       -0.2042
     13 C         138.4323  137.5165  165.5393 C.ar    1  UNL1        0.0294
     14 C         139.5930  138.1292  164.8131 C.ar    1  UNL1        0.0014
     15 C         143.3087  144.8948  163.3296 C.3     1  UNL1        0.0265
     16 C         142.5340  143.8545  162.5763 C.3     1  UNL1        0.1011
     17 C         142.1448  144.0972  161.1481 C.ar    1  UNL1       -0.0040
     18 C         140.9702  144.9741  160.8294 C.ar    1  UNL1        0.0004
     19 C         140.5811  145.2167  159.4013 C.ar    1  UNL1        0.0368
     20 C         141.3664  144.5825  158.2918 C.ar    1  UNL1        0.1443
     21 C         142.5409  143.7056  158.6104 C.ar    1  UNL1        0.0368
     22 C         142.9301  143.4630  160.0386 C.ar    1  UNL1        0.0004
     23 O         140.9772  144.8251  156.8636 O.3     1  UNL1       -0.4236
     24 C         139.7697  145.6565  156.5462 C.3     1  UNL1        0.5087
     25 F         139.7475  147.1135  156.9024 F       1  UNL1       -0.1550
     26 F         138.5844  145.0309  155.8726 F       1  UNL1       -0.1550
     27 C         141.9473  138.6526  164.9082 C.3     1  UNL1        0.0541
     28 C         143.3707  138.5242  165.3634 C.3     1  UNL1        0.0887
     29 C         143.6735  138.1955  166.7953 C.2     1  UNL1        0.2195
     30 N         143.0245  138.9784  167.8979 N.am    1  UNL1       -0.3288
     31 O         144.6253  137.0838  167.1244 O.2     1  UNL1       -0.2753
     32 H         142.3998  139.7080  167.6818 H       1  UNL1        0.1449
     33 H         143.2232  138.7626  168.8377 H       1  UNL1        0.1449
@<TRIPOS>BOND
     1    16    15    1
     2    16    17    1
     3    17    18   ar
     4    18    19   ar
     5    19    20   ar
     6    20    23    1
     7    23    24    1
     8    24    25    1
     9    24    26    1
    10    20    21   ar
    11    21    22   ar
    12    16     1    1
    13     1     2    1
    14     2     3    1
    15     3     4    1
    16     4    27    1
    17    27    28    1
    18    28    29    1
    19    29    30   am
    20    29    31    2
    21     4     8    1
    22     8     9   ar
    23     9    10   ar
    24    10    11   ar
    25    11    12    1
    26    11    13   ar
    27    13    14   ar
    28     4     5    1
    29     5     6    1
    30     6     7    2
    31    22    17   ar
    32     6     1   am
    33    14     8   ar
    34    30    32    1
    35    30    33    1
@<TRIPOS>MOLECULE
*****
 33 35 0 0 0
SMALL
GASTEIGER

@<TRIPOS>ATOM
      1 N         139.9224  139.7233  163.7122 N.am    1  UNL1       -0.2438
      2 C         140.7425  139.5109  164.9500 C.3     1  UNL1        0.1009
      3 C         140.9576  140.6427  165.9106 C.3     1  UNL1        0.0661
      4 C         140.3526  141.9870  165.6333 C.3     1  UNL1        0.1582
      5 O         139.5325  142.1994  164.3954 O.3     1  UNL1       -0.4375
      6 C         139.3174  141.0676  163.4348 C.2     1  UNL1        0.4051
      7 O         138.4973  141.2800  162.1969 O.2     1  UNL1       -0.2262
      8 C         141.0462  142.2763  166.9315 C.ar    1  UNL1        0.0139
      9 C         142.5132  141.9985  167.0761 C.ar    1  UNL1        0.0014
     10 C         143.2068  142.2879  168.3743 C.ar    1  UNL1        0.0294
     11 C         142.4335  142.8550  169.5277 C.ar    1  UNL1        0.1401
     12 F         143.1271  143.1443  170.8259 F       1  UNL1       -0.2042
     13 C         140.9665  143.1327  169.3830 C.ar    1  UNL1        0.0294
     14 C         140.2729  142.8434  168.0848 C.ar    1  UNL1        0.0014
     15 C         138.6097  137.5987  162.9959 C.3     1  UNL1        0.0265
     16 C         139.7073  138.5914  162.7516 C.3     1  UNL1        0.1011
     17 C         140.5900  138.4523  161.5467 C.ar    1  UNL1       -0.0040
     18 C         140.0883  138.8724  160.1970 C.ar    1  UNL1        0.0004
     19 C         140.9710  138.7333  158.9922 C.ar    1  UNL1        0.0368
     20 C         142.3552  138.1740  159.1372 C.ar    1  UNL1        0.1443
     21 C         142.8569  137.7538  160.4869 C.ar    1  UNL1        0.0368
     22 C         141.9742  137.8930  161.6917 C.ar    1  UNL1        0.0004
     23 O         143.2378  138.0348  157.9323 O.3     1  UNL1       -0.4236
     24 C         142.9896  136.9343  156.9438 C.3     1  UNL1        0.5087
     25 F         141.6194  136.3379  156.8138 F       1  UNL1       -0.1550
     26 F         144.1116  136.4300  156.0853 F       1  UNL1       -0.1550
     27 C         139.9885  143.4318  165.8068 C.3     1  UNL1        0.0541
     28 C         139.9240  144.3375  164.6130 C.3     1  UNL1        0.0887
     29 C         141.1886  144.8654  164.0027 C.2     1  UNL1        0.2195
     30 N         141.1259  145.9456  162.9639 N.am    1  UNL1       -0.3288
     31 O         142.5156  144.3129  164.4314 O.2     1  UNL1       -0.2753
     32 H         140.2549  146.3082  162.6826 H       1  UNL1        0.1449
     33 H         141.9559  146.2921  162.5634 H       1  UNL1        0.1449
@<TRIPOS>BOND
     1    16    15    1
     2    16    17    1
     3    17    18   ar
     4    18    19   ar
     5    19    20   ar
     6    20    23    1
     7    23    24    1
     8    24    25    1
     9    24    26    1
    10    20    21   ar
    11    21    22   ar
    12    16     1    1
    13     1     2    1
    14     2     3    1
    15     3     4    1
    16     4    27    1
    17    27    28    1
    18    28    29    1
    19    29    30   am
    20    29    31    2
    21     4     8    1
    22     8     9   ar
    23     9    10   ar
    24    10    11   ar
    25    11    12    1
    26    11    13   ar
    27    13    14   ar
    28     4     5    1
    29     5     6    1
    30     6     7    2
    31    22    17   ar
    32     6     1   am
    33    14     8   ar
    34    30    32    1
    35    30    33    1
@<TRIPOS>MOLECULE
*****
 33 35 0 0 0
SMALL
GASTEIGER

@<TRIPOS>ATOM
      1 N         139.4093  142.1815  164.3826 N.am    1  UNL1       -0.2438
      2 C         140.2280  143.1826  165.1425 C.3     1  UNL1        0.1009
      3 C         140.7441  142.8462  166.5101 C.3     1  UNL1        0.0661
      4 C         140.4415  141.5087  167.1179 C.3     1  UNL1        0.1582
      5 O         139.6227  140.5075  166.3580 O.3     1  UNL1       -0.4375
      6 C         139.1066  140.8439  164.9904 C.2     1  UNL1        0.4051
      7 O         138.2879  139.8429  164.2305 O.2     1  UNL1       -0.2262
      8 C         141.2530  142.1189  168.2221 C.ar    1  UNL1        0.0139
      9 C         140.6307  143.1288  169.1402 C.ar    1  UNL1        0.0014
     10 C         141.4423  143.7390  170.2443 C.ar    1  UNL1        0.0294
     11 C         142.8760  143.3393  170.4303 C.ar    1  UNL1        0.1401
     12 F         143.6875  143.9495  171.5345 F       1  UNL1       -0.2042
     13 C         143.4983  142.3294  169.5122 C.ar    1  UNL1        0.0294
     14 C         142.6868  141.7192  168.4080 C.ar    1  UNL1        0.0014
     15 C         137.4257  142.4172  162.7213 C.3     1  UNL1        0.0265
     16 C         138.8932  142.5180  163.0149 C.3     1  UNL1        0.1011
     17 C         139.8447  142.9552  161.9409 C.ar    1  UNL1       -0.0040
     18 C         140.7427  141.9516  161.2804 C.ar    1  UNL1        0.0004
     19 C         141.6941  142.3888  160.2063 C.ar    1  UNL1        0.0368
     20 C         141.7476  143.8297  159.7928 C.ar    1  UNL1        0.1443
     21 C         140.8496  144.8333  160.4534 C.ar    1  UNL1        0.0368
     22 C         139.8982  144.3961  161.5274 C.ar    1  UNL1        0.0004
     23 O         142.6990  144.2669  158.7188 O.3     1  UNL1       -0.4236
     24 C         142.2055  145.1003  157.5734 C.3     1  UNL1        0.5087
     25 F         142.6260  146.5352  157.4539 F       1  UNL1       -0.1550
     26 F         141.2915  144.4987  156.5473 F       1  UNL1       -0.1550
     27 C         140.4207  140.3831  168.1092 C.3     1  UNL1        0.0541
     28 C         139.1166  139.9106  168.6802 C.3     1  UNL1        0.0887
     29 C         138.9210  139.8661  170.1667 C.2     1  UNL1        0.2195
     30 N         140.0895  140.0759  171.0835 N.am    1  UNL1       -0.3288
     31 O         137.5568  139.6118  170.7363 O.2     1  UNL1       -0.2753
     32 H         140.9848  140.2428  170.7096 H       1  UNL1        0.1449
     33 H         139.9611  140.0468  172.0592 H       1  UNL1        0.1449
@<TRIPOS>BOND
     1    16    15    1
     2    16    17    1
     3    17    18   ar
     4    18    19   ar
     5    19    20   ar
     6    20    23    1
     7    23    24    1
     8    24    25    1
     9    24    26    1
    10    20    21   ar
    11    21    22   ar
    12    16     1    1
    13     1     2    1
    14     2     3    1
    15     3     4    1
    16     4    27    1
    17    27    28    1
    18    28    29    1
    19    29    30   am
    20    29    31    2
    21     4     8    1
    22     8     9   ar
    23     9    10   ar
    24    10    11   ar
    25    11    12    1
    26    11    13   ar
    27    13    14   ar
    28     4     5    1
    29     5     6    1
    30     6     7    2
    31    22    17   ar
    32     6     1   am
    33    14     8   ar
    34    30    32    1
    35    30    33    1
@<TRIPOS>MOLECULE
*****
 33 35 0 0 0
SMALL
GASTEIGER

@<TRIPOS>ATOM
      1 N         143.3676  141.7072  163.9294 N.am    1  UNL1       -0.2438
      2 C         143.1024  140.7717  165.0715 C.3     1  UNL1        0.1009
      3 C         141.9780  141.0511  166.0242 C.3     1  UNL1        0.0661
      4 C         141.1188  142.2659  165.8348 C.3     1  UNL1        0.1582
      5 O         141.3840  143.2014  164.6926 O.3     1  UNL1       -0.4375
      6 C         142.5084  142.9221  163.7399 C.2     1  UNL1        0.4051
      7 O         142.7736  143.8575  162.5978 O.2     1  UNL1       -0.2262
      8 C         140.4778  141.6819  167.0588 C.ar    1  UNL1        0.0139
      9 C         140.5575  142.4107  168.3674 C.ar    1  UNL1        0.0014
     10 C         139.9166  141.8267  169.5914 C.ar    1  UNL1        0.0294
     11 C         139.1960  140.5139  169.5067 C.ar    1  UNL1        0.1401
     12 F         138.5551  139.9298  170.7307 F       1  UNL1       -0.2042
     13 C         139.1163  139.7850  168.1981 C.ar    1  UNL1        0.0294
     14 C         139.7572  140.3691  166.9741 C.ar    1  UNL1        0.0014
     15 C         145.8986  141.7921  163.3492 C.3     1  UNL1        0.0265
     16 C         144.4921  141.4278  162.9767 C.3     1  UNL1        0.1011
     17 C         144.2098  140.7842  161.6515 C.ar    1  UNL1       -0.0040
     18 C         144.1938  141.6147  160.4026 C.ar    1  UNL1        0.0004
     19 C         143.9116  140.9710  159.0775 C.ar    1  UNL1        0.0368
     20 C         143.6454  139.4968  159.0013 C.ar    1  UNL1        0.1443
     21 C         143.6615  138.6662  160.2502 C.ar    1  UNL1        0.0368
     22 C         143.9437  139.3099  161.5753 C.ar    1  UNL1        0.0004
     23 O         143.3632  138.8531  157.6761 O.3     1  UNL1       -0.4236
     24 C         142.5279  137.6090  157.6093 C.3     1  UNL1        0.5087
     25 F         143.1692  136.2913  157.2890 F       1  UNL1       -0.1550
     26 F         141.0513  137.6826  157.8628 F       1  UNL1       -0.1550
     27 C         140.0369  143.2779  166.0704 C.3     1  UNL1        0.0541
     28 C         138.8307  143.3076  165.1794 C.3     1  UNL1        0.0887
     29 C         138.7053  144.3638  164.1217 C.2     1  UNL1        0.2195
     30 N         139.7649  145.4165  163.9837 N.am    1  UNL1       -0.3288
     31 O         137.5203  144.3673  163.2020 O.2     1  UNL1       -0.2753
     32 H         140.5427  145.4141  164.5873 H       1  UNL1        0.1449
     33 H         139.6827  146.1097  163.2895 H       1  UNL1        0.1449
@<TRIPOS>BOND
     1    16    15    1
     2    16    17    1
     3    17    18   ar
     4    18    19   ar
     5    19    20   ar
     6    20    23    1
     7    23    24    1
     8    24    25    1
     9    24    26    1
    10    20    21   ar
    11    21    22   ar
    12    16     1    1
    13     1     2    1
    14     2     3    1
    15     3     4    1
    16     4    27    1
    17    27    28    1
    18    28    29    1
    19    29    30   am
    20    29    31    2
    21     4     8    1
    22     8     9   ar
    23     9    10   ar
    24    10    11   ar
    25    11    12    1
    26    11    13   ar
    27    13    14   ar
    28     4     5    1
    29     5     6    1
    30     6     7    2
    31    22    17   ar
    32     6     1   am
    33    14     8   ar
    34    30    32    1
    35    30    33    1
@<TRIPOS>MOLECULE
*****
 33 35 0 0 0
SMALL
GASTEIGER

@<TRIPOS>ATOM
      1 N         139.1137  139.6317  164.9424 N.am    1  UNL1       -0.2438
      2 C         138.3109  140.5725  164.0936 C.3     1  UNL1        0.1009
      3 C         138.6153  140.7086  162.6311 C.3     1  UNL1        0.0661
      4 C         139.7226  139.9040  162.0174 C.3     1  UNL1        0.1582
      5 O         140.5254  138.9632  162.8662 O.3     1  UNL1       -0.4375
      6 C         140.2210  138.8271  164.3287 C.2     1  UNL1        0.4051
      7 O         141.0237  137.8863  165.1775 O.2     1  UNL1       -0.2262
      8 C         139.2469  140.6561  160.8098 C.ar    1  UNL1        0.0139
      9 C         138.5326  139.9310  159.7080 C.ar    1  UNL1        0.0014
     10 C         138.0570  140.6830  158.5004 C.ar    1  UNL1        0.0294
     11 C         138.2957  142.1601  158.3948 C.ar    1  UNL1        0.1401
     12 F         137.8200  142.9122  157.1872 F       1  UNL1       -0.2042
     13 C         139.0100  142.8852  159.4966 C.ar    1  UNL1        0.0294
     14 C         139.4856  142.1332  160.7042 C.ar    1  UNL1        0.0014
     15 C         137.8188  138.4708  166.8725 C.3     1  UNL1        0.0265
     16 C         138.8092  139.4956  166.4048 C.3     1  UNL1        0.1011
     17 C         139.4953  140.3843  167.3996 C.ar    1  UNL1       -0.0040
     18 C         139.2525  140.1945  168.8676 C.ar    1  UNL1        0.0004
     19 C         139.9386  141.0831  169.8623 C.ar    1  UNL1        0.0368
     20 C         140.8674  142.1617  169.3890 C.ar    1  UNL1        0.1443
     21 C         141.1102  142.3515  167.9211 C.ar    1  UNL1        0.0368
     22 C         140.4242  141.4629  166.9264 C.ar    1  UNL1        0.0004
     23 O         141.5535  143.0504  170.3838 O.3     1  UNL1       -0.4236
     24 C         143.0497  143.0428  170.4897 C.3     1  UNL1        0.5087
     25 F         143.8412  141.9403  169.8508 F       1  UNL1       -0.1550
     26 F         143.7545  144.1376  171.2345 F       1  UNL1       -0.1550
     27 C         140.6646  139.3606  160.9844 C.3     1  UNL1        0.0541
     28 C         142.1424  139.5708  161.1324 C.3     1  UNL1        0.0887
     29 C         143.1038  138.6605  160.4273 C.2     1  UNL1        0.2195
     30 N         143.3140  137.2612  160.9250 N.am    1  UNL1       -0.3288
     31 O         143.8549  139.1496  159.2245 O.2     1  UNL1       -0.2753
     32 H         142.8210  136.9403  161.7144 H       1  UNL1        0.1449
     33 H         143.9450  136.6637  160.4623 H       1  UNL1        0.1449
@<TRIPOS>BOND
     1    16    15    1
     2    16    17    1
     3    17    18   ar
     4    18    19   ar
     5    19    20   ar
     6    20    23    1
     7    23    24    1
     8    24    25    1
     9    24    26    1
    10    20    21   ar
    11    21    22   ar
    12    16     1    1
    13     1     2    1
    14     2     3    1
    15     3     4    1
    16     4    27    1
    17    27    28    1
    18    28    29    1
    19    29    30   am
    20    29    31    2
    21     4     8    1
    22     8     9   ar
    23     9    10   ar
    24    10    11   ar
    25    11    12    1
    26    11    13   ar
    27    13    14   ar
    28     4     5    1
    29     5     6    1
    30     6     7    2
    31    22    17   ar
    32     6     1   am
    33    14     8   ar
    34    30    32    1
    35    30    33    1
@<TRIPOS>MOLECULE
*****
 33 35 0 0 0
SMALL
GASTEIGER

@<TRIPOS>ATOM
      1 N         139.5515  141.2842  163.2099 N.am    1  UNL1       -0.2438
      2 C         139.1001  142.1768  164.3276 C.3     1  UNL1        0.1009
      3 C         139.5127  141.8789  165.7386 C.3     1  UNL1        0.0661
      4 C         140.3768  140.6884  166.0319 C.3     1  UNL1        0.1582
      5 O         140.8283  139.7958  164.9141 O.3     1  UNL1       -0.4375
      6 C         140.4156  140.0937  163.5031 C.2     1  UNL1        0.4051
      7 O         140.8671  139.2011  162.3854 O.2     1  UNL1       -0.2262
      8 C         140.2047  141.2333  167.4188 C.ar    1  UNL1        0.0139
      9 C         140.6457  142.6317  167.7353 C.ar    1  UNL1        0.0014
     10 C         140.4736  143.1766  169.1222 C.ar    1  UNL1        0.0294
     11 C         139.8605  142.3231  170.1926 C.ar    1  UNL1        0.1401
     12 F         139.6883  142.8680  171.5795 F       1  UNL1       -0.2042
     13 C         139.4195  140.9247  169.8761 C.ar    1  UNL1        0.0294
     14 C         139.5916  140.3798  168.4892 C.ar    1  UNL1        0.0014
     15 C         137.9690  140.8655  161.1924 C.3     1  UNL1        0.0265
     16 C         139.1389  141.5821  161.7988 C.3     1  UNL1        0.1011
     17 C         139.8962  142.5967  160.9943 C.ar    1  UNL1       -0.0040
     18 C         140.8789  142.1471  159.9541 C.ar    1  UNL1        0.0004
     19 C         141.6361  143.1616  159.1495 C.ar    1  UNL1        0.0368
     20 C         141.4106  144.6257  159.3853 C.ar    1  UNL1        0.1443
     21 C         140.4279  145.0753  160.4255 C.ar    1  UNL1        0.0368
     22 C         139.6707  144.0608  161.2300 C.ar    1  UNL1        0.0004
     23 O         142.1679  145.6403  158.5807 O.3     1  UNL1       -0.4236
     24 C         141.7841  145.9051  157.1551 C.3     1  UNL1        0.5087
     25 F         140.5242  146.6579  156.8450 F       1  UNL1       -0.1550
     26 F         142.6600  145.4172  156.0394 F       1  UNL1       -0.1550
     27 C         141.1812  139.6872  166.8069 C.3     1  UNL1        0.0541
     28 C         142.6786  139.7730  166.8152 C.3     1  UNL1        0.0887
     29 C         143.4948  138.7065  166.1470 C.2     1  UNL1        0.2195
     30 N         143.5848  138.6583  164.6505 N.am    1  UNL1       -0.3288
     31 O         144.2208  137.6883  166.9753 O.2     1  UNL1       -0.2753
     32 H         143.1083  139.3267  164.1069 H       1  UNL1        0.1449
     33 H         144.1205  137.9584  164.2118 H       1  UNL1        0.1449
@<TRIPOS>BOND
     1    16    15    1
     2    16    17    1
     3    17    18   ar
     4    18    19   ar
     5    19    20   ar
     6    20    23    1
     7    23    24    1
     8    24    25    1
     9    24    26    1
    10    20    21   ar
    11    21    22   ar
    12    16     1    1
    13     1     2    1
    14     2     3    1
    15     3     4    1
    16     4    27    1
    17    27    28    1
    18    28    29    1
    19    29    30   am
    20    29    31    2
    21     4     8    1
    22     8     9   ar
    23     9    10   ar
    24    10    11   ar
    25    11    12    1
    26    11    13   ar
    27    13    14   ar
    28     4     5    1
    29     5     6    1
    30     6     7    2
    31    22    17   ar
    32     6     1   am
    33    14     8   ar
    34    30    32    1
    35    30    33    1
@<TRIPOS>MOLECULE
*****
 33 35 0 0 0
SMALL
GASTEIGER

@<TRIPOS>ATOM
      1 N         140.0026  142.9569  163.7770 N.am    1  UNL1       -0.2438
      2 C         140.6566  143.3544  165.0670 C.3     1  UNL1        0.1009
      3 C         140.7332  142.3763  166.2017 C.3     1  UNL1        0.0661
      4 C         140.1558  141.0007  166.0463 C.3     1  UNL1        0.1582
      5 O         139.5018  140.6031  164.7562 O.3     1  UNL1       -0.4375
      6 C         139.4252  141.5812  163.6216 C.2     1  UNL1        0.4051
      7 O         138.7712  141.1837  162.3315 O.2     1  UNL1       -0.2262
      8 C         140.6715  140.9094  167.4519 C.ar    1  UNL1        0.0139
      9 C         141.6596  139.8427  167.8205 C.ar    1  UNL1        0.0014
     10 C         142.1753  139.7515  169.2262 C.ar    1  UNL1        0.0294
     11 C         141.7028  140.7270  170.2631 C.ar    1  UNL1        0.1401
     12 F         142.2185  140.6357  171.6688 F       1  UNL1       -0.2042
     13 C         140.7147  141.7936  169.8945 C.ar    1  UNL1        0.0294
     14 C         140.1990  141.8849  168.4889 C.ar    1  UNL1        0.0014
     15 C         138.9018  145.0306  162.6645 C.3     1  UNL1        0.0265
     16 C         139.9260  143.9351  162.6424 C.3     1  UNL1        0.1011
     17 C         140.8737  143.8175  161.4856 C.ar    1  UNL1       -0.0040
     18 C         140.5016  144.3901  160.1501 C.ar    1  UNL1        0.0004
     19 C         141.4493  144.2726  158.9933 C.ar    1  UNL1        0.0368
     20 C         142.7691  143.5825  159.1722 C.ar    1  UNL1        0.1443
     21 C         143.1412  143.0099  160.5077 C.ar    1  UNL1        0.0368
     22 C         142.1935  143.1274  161.6644 C.ar    1  UNL1        0.0004
     23 O         143.7168  143.4650  158.0154 O.3     1  UNL1       -0.4236
     24 C         144.8353  142.4665  158.0606 C.3     1  UNL1        0.5087
     25 F         146.2597  142.9326  157.9990 F       1  UNL1       -0.1550
     26 F         144.5293  141.0019  158.1673 F       1  UNL1       -0.1550
     27 C         139.7575  139.5933  166.3790 C.3     1  UNL1        0.0541
     28 C         138.3093  139.2026  166.3743 C.3     1  UNL1        0.0887
     29 C         137.6923  138.5952  167.5992 C.2     1  UNL1        0.2195
     30 N         136.8805  137.3389  167.4856 N.am    1  UNL1       -0.3288
     31 O         137.8870  139.2440  168.9375 O.2     1  UNL1       -0.2753
     32 H         136.7528  136.9131  166.6072 H       1  UNL1        0.1449
     33 H         136.4756  136.9402  168.2895 H       1  UNL1        0.1449
@<TRIPOS>BOND
     1    16    15    1
     2    16    17    1
     3    17    18   ar
     4    18    19   ar
     5    19    20   ar
     6    20    23    1
     7    23    24    1
     8    24    25    1
     9    24    26    1
    10    20    21   ar
    11    21    22   ar
    12    16     1    1
    13     1     2    1
    14     2     3    1
    15     3     4    1
    16     4    27    1
    17    27    28    1
    18    28    29    1
    19    29    30   am
    20    29    31    2
    21     4     8    1
    22     8     9   ar
    23     9    10   ar
    24    10    11   ar
    25    11    12    1
    26    11    13   ar
    27    13    14   ar
    28     4     5    1
    29     5     6    1
    30     6     7    2
    31    22    17   ar
    32     6     1   am
    33    14     8   ar
    34    30    32    1
    35    30    33    1
@<TRIPOS>MOLECULE
*****
 33 35 0 0 0
SMALL
GASTEIGER

@<TRIPOS>ATOM
      1 N         139.4572  142.0276  164.1530 N.am    1  UNL1       -0.2438
      2 C         140.2819  143.0292  164.9056 C.3     1  UNL1        0.1009
      3 C         140.7446  142.7241  166.2995 C.3     1  UNL1        0.0661
      4 C         140.3826  141.4174  166.9407 C.3     1  UNL1        0.1582
      5 O         139.5579  140.4156  166.1881 O.3     1  UNL1       -0.4375
      6 C         139.0952  140.7207  164.7942 C.2     1  UNL1        0.4051
      7 O         138.2705  139.7190  164.0416 O.2     1  UNL1       -0.2262
      8 C         141.1775  142.0404  168.0498 C.ar    1  UNL1        0.0139
      9 C         142.5962  141.6147  168.2865 C.ar    1  UNL1        0.0014
     10 C         143.3911  142.2377  169.3956 C.ar    1  UNL1        0.0294
     11 C         142.7671  143.2864  170.2679 C.ar    1  UNL1        0.1401
     12 F         143.5620  143.9094  171.3770 F       1  UNL1       -0.2042
     13 C         141.3484  143.7121  170.0313 C.ar    1  UNL1        0.0294
     14 C         140.5535  143.0890  168.9222 C.ar    1  UNL1        0.0014
     15 C         137.7780  143.1830  162.5420 C.3     1  UNL1        0.0265
     16 C         138.9945  142.3327  162.7591 C.3     1  UNL1        0.1011
     17 C         139.7483  141.7874  161.5824 C.ar    1  UNL1       -0.0040
     18 C         139.1286  140.7277  160.7204 C.ar    1  UNL1        0.0004
     19 C         139.8824  140.1825  159.5438 C.ar    1  UNL1        0.0368
     20 C         141.2559  140.6970  159.2292 C.ar    1  UNL1        0.1443
     21 C         141.8755  141.7566  160.0912 C.ar    1  UNL1        0.0368
     22 C         141.1217  142.3018  161.2678 C.ar    1  UNL1        0.0004
     23 O         142.0097  140.1517  158.0525 O.3     1  UNL1       -0.4236
     24 C         142.9056  138.9607  158.2222 C.3     1  UNL1        0.5087
     25 F         143.4554  138.6227  159.5763 F       1  UNL1       -0.1550
     26 F         143.2516  138.1077  157.0379 F       1  UNL1       -0.1550
     27 C         140.2967  140.3269  167.9672 C.3     1  UNL1        0.0541
     28 C         138.9673  139.9485  168.5499 C.3     1  UNL1        0.0887
     29 C         138.7594  139.9926  170.0348 C.2     1  UNL1        0.2195
     30 N         137.4614  139.5262  170.6245 N.am    1  UNL1       -0.3288
     31 O         139.8494  140.5032  170.9299 O.2     1  UNL1       -0.2753
     32 H         136.7461  139.1910  170.0369 H       1  UNL1        0.1449
     33 H         137.3249  139.5551  171.5990 H       1  UNL1        0.1449
@<TRIPOS>BOND
     1    16    15    1
     2    16    17    1
     3    17    18   ar
     4    18    19   ar
     5    19    20   ar
     6    20    23    1
     7    23    24    1
     8    24    25    1
     9    24    26    1
    10    20    21   ar
    11    21    22   ar
    12    16     1    1
    13     1     2    1
    14     2     3    1
    15     3     4    1
    16     4    27    1
    17    27    28    1
    18    28    29    1
    19    29    30   am
    20    29    31    2
    21     4     8    1
    22     8     9   ar
    23     9    10   ar
    24    10    11   ar
    25    11    12    1
    26    11    13   ar
    27    13    14   ar
    28     4     5    1
    29     5     6    1
    30     6     7    2
    31    22    17   ar
    32     6     1   am
    33    14     8   ar
    34    30    32    1
    35    30    33    1
