@<TRIPOS>MOLECULE
*****
 37 39 0 0 0
SMALL
GASTEIGER

@<TRIPOS>ATOM
      1 C         138.7518  140.1953  163.0687 C.3     1  UNL1        0.0927
      2 C         138.9056  138.8554  162.4122 C.3     1  UNL1        0.0777
      3 N         138.9294  137.6094  163.2470 N.3     1  UNL1       -0.2967
      4 C         138.7995  137.7033  164.7383 C.3     1  UNL1        0.0777
      5 C         138.6457  139.0431  165.3949 C.3     1  UNL1        0.0933
      6 C         138.6219  140.2891  164.5601 C.3     1  UNL1        0.0210
      7 H         139.8175  137.1450  163.0574 H       1  UNL1        0.1233
      8 N         140.0050  142.1703  161.9379 N.am    1  UNL1       -0.3035
      9 C         138.7279  141.4413  162.2339 C.2     1  UNL1        0.2234
     10 O         137.4270  141.9583  161.6952 O.2     1  UNL1       -0.2751
     11 H         140.8588  141.8309  162.2915 H       1  UNL1        0.1495
     12 C         139.9811  143.4163  161.1031 C.3     1  UNL1        0.1011
     13 C         140.2638  143.3390  159.6320 C.3     1  UNL1        0.1615
     14 O         141.4266  144.0878  159.0513 O.3     1  UNL1       -0.3520
     15 C         142.0900  145.8917  157.3032 C.3     1  UNL1        0.0346
     16 C         141.2162  145.4392  158.4354 C.3     1  UNL1        0.1423
     17 C         139.6746  144.7396  161.7394 C.3     1  UNL1        0.0221
     18 C         140.0973  145.0077  163.1534 C.3     1  UNL1        0.0017
     19 C         139.1173  144.8317  164.2753 C.3     1  UNL1        0.0001
     20 C         141.5000  145.4518  163.4456 C.3     1  UNL1        0.0001
     21 C         138.5157  139.1370  166.8864 C.2     1  UNL1        0.2312
     22 O         137.4118  138.4053  167.5905 O.2     1  UNL1       -0.2745
     23 N         139.4898  139.9625  167.6736 N.am    1  UNL1       -0.2454
     24 C         140.5937  140.6942  166.9694 C.ar    1  UNL1        0.1404
     25 C         141.7926  139.9431  166.4709 C.ar    1  UNL1        0.0712
     26 C         142.8966  140.6748  165.7667 C.ar    1  UNL1        0.1390
     27 C         142.8017  142.1576  165.5611 C.ar    1  UNL1        0.0307
     28 C         141.6028  142.9087  166.0596 C.ar    1  UNL1        0.0990
     29 N         140.4989  142.1770  166.7638 N.ar    1  UNL1       -0.2289
     30 C         143.9057  142.8893  164.8569 C.3     1  UNL1        0.0269
     31 C         144.8660  143.7331  165.6416 C.3     1  UNL1        0.0048
     32 C         144.0493  142.7772  163.3680 C.3     1  UNL1        0.0048
     33 O         144.0955  139.9237  165.2682 O.3     1  UNL1       -0.4716
     34 C         144.0181  139.1561  163.9818 C.3     1  UNL1        0.2525
     35 C         139.3598  140.0564  169.1650 C.3     1  UNL1        0.0812
     36 C         139.9797  139.9940  170.5295 C.3     1  UNL1        0.0219
     37 C         138.5148  140.2815  170.3838 C.3     1  UNL1        0.0219
@<TRIPOS>BOND
     1    15    16    1
     2    16    14    1
     3    14    13    1
     4    12    13    1
     5    12    17    1
     6    17    18    1
     7    18    19    1
     8    18    20    1
     9    12     8    1
    10     8     9   am
    11     9    10    2
    12     1     9    1
    13     1     2    1
    14     2     3    1
    15     3     4    1
    16     4     5    1
    17     5    21    1
    18    21    22    2
    19    21    23   am
    20    23    24    1
    21    24    25   ar
    22    25    26   ar
    23    26    33    1
    24    33    34    1
    25    26    27   ar
    26    27    30    1
    27    30    31    1
    28    30    32    1
    29    27    28   ar
    30    28    29   ar
    31    23    35    1
    32    35    36    1
    33    36    37    1
    34     5     6    1
    35     6     1    1
    36    29    24   ar
    37    37    35    1
    38     8    11    1
    39     3     7    1
@<TRIPOS>MOLECULE
*****
 37 39 0 0 0
SMALL
GASTEIGER

@<TRIPOS>ATOM
      1 C         142.6557  138.7842  162.3073 C.3     1  UNL1        0.0927
      2 C         141.6992  137.6586  162.0464 C.3     1  UNL1        0.0777
      3 N         141.1350  136.8728  163.1929 N.3     1  UNL1       -0.2967
      4 C         141.5273  137.2127  164.6002 C.3     1  UNL1        0.0777
      5 C         142.4838  138.3383  164.8610 C.3     1  UNL1        0.0933
      6 C         143.0480  139.1240  163.7146 C.3     1  UNL1        0.0210
      7 H         141.3987  135.8993  163.0406 H       1  UNL1        0.1233
      8 N         142.4954  140.7813  160.6533 N.am    1  UNL1       -0.3035
      9 C         143.2199  139.5699  161.1609 C.2     1  UNL1        0.2234
     10 O         144.5085  139.1443  160.5220 O.2     1  UNL1       -0.2751
     11 H         141.6496  141.0606  161.0726 H       1  UNL1        0.1495
     12 C         143.0595  141.5670  159.5069 C.3     1  UNL1        0.1011
     13 C         144.0070  142.7001  159.7684 C.3     1  UNL1        0.1615
     14 O         145.1044  142.5421  160.7788 O.3     1  UNL1       -0.3520
     15 C         145.5334  141.8932  163.2577 C.3     1  UNL1        0.0346
     16 C         144.8116  142.7242  162.2386 C.3     1  UNL1        0.1423
     17 C         142.6762  141.2197  158.0988 C.3     1  UNL1        0.0221
     18 C         143.4422  140.1696  157.3503 C.3     1  UNL1        0.0017
     19 C         142.9382  138.7573  157.3128 C.3     1  UNL1        0.0001
     20 C         144.7125  140.5317  156.6393 C.3     1  UNL1        0.0001
     21 C         142.8762  138.6782  166.2684 C.2     1  UNL1        0.2312
     22 O         143.9021  137.8487  166.9821 O.2     1  UNL1       -0.2745
     23 N         142.2426  139.8475  166.9620 N.am    1  UNL1       -0.2454
     24 C         141.2166  140.6770  166.2483 C.ar    1  UNL1        0.1404
     25 C         141.6011  142.0018  165.6590 C.ar    1  UNL1        0.0712
     26 C         140.5751  142.8313  164.9454 C.ar    1  UNL1        0.1390
     27 C         139.1647  142.3360  164.8210 C.ar    1  UNL1        0.0307
     28 C         138.7803  141.0113  165.4102 C.ar    1  UNL1        0.0990
     29 N         139.8062  140.1818  166.1239 N.ar    1  UNL1       -0.2289
     30 C         138.1387  143.1655  164.1073 C.3     1  UNL1        0.0269
     31 C         137.6375  142.7414  162.7587 C.3     1  UNL1        0.0048
     32 C         137.6140  144.4191  164.7423 C.3     1  UNL1        0.0048
     33 O         140.9596  144.1560  164.3561 O.3     1  UNL1       -0.4716
     34 C         141.4256  144.2368  162.9326 C.3     1  UNL1        0.2525
     35 C         142.6349  140.1874  168.3694 C.3     1  UNL1        0.0812
     36 C         143.1944  141.1624  169.3625 C.3     1  UNL1        0.0219
     37 C         142.7550  139.8011  169.8138 C.3     1  UNL1        0.0219
@<TRIPOS>BOND
     1    15    16    1
     2    16    14    1
     3    14    13    1
     4    12    13    1
     5    12    17    1
     6    17    18    1
     7    18    19    1
     8    18    20    1
     9    12     8    1
    10     8     9   am
    11     9    10    2
    12     1     9    1
    13     1     2    1
    14     2     3    1
    15     3     4    1
    16     4     5    1
    17     5    21    1
    18    21    22    2
    19    21    23   am
    20    23    24    1
    21    24    25   ar
    22    25    26   ar
    23    26    33    1
    24    33    34    1
    25    26    27   ar
    26    27    30    1
    27    30    31    1
    28    30    32    1
    29    27    28   ar
    30    28    29   ar
    31    23    35    1
    32    35    36    1
    33    36    37    1
    34     5     6    1
    35     6     1    1
    36    29    24   ar
    37    37    35    1
    38     8    11    1
    39     3     7    1
@<TRIPOS>MOLECULE
*****
 37 39 0 0 0
SMALL
GASTEIGER

@<TRIPOS>ATOM
      1 C         138.5489  140.0005  162.9746 C.3     1  UNL1        0.0927
      2 C         138.8159  138.6540  162.3700 C.3     1  UNL1        0.0777
      3 N         138.9636  137.4510  163.2537 N.3     1  UNL1       -0.2967
      4 C         138.8444  137.5945  164.7420 C.3     1  UNL1        0.0777
      5 C         138.5774  138.9410  165.3466 C.3     1  UNL1        0.0933
      6 C         138.4297  140.1440  164.4629 C.3     1  UNL1        0.0210
      7 H         139.8879  137.0613  163.0685 H       1  UNL1        0.1233
      8 N         139.4260  141.4875  161.0331 N.am    1  UNL1       -0.3035
      9 C         138.4012  141.2035  162.0909 C.2     1  UNL1        0.2234
     10 O         137.2286  142.1225  162.2650 O.2     1  UNL1       -0.2751
     11 H         140.1957  140.8843  160.9188 H       1  UNL1        0.1495
     12 C         139.2783  142.6905  160.1494 C.3     1  UNL1        0.1011
     13 C         139.7998  144.0221  160.6019 C.3     1  UNL1        0.1615
     14 O         140.1768  144.2311  162.0387 O.3     1  UNL1       -0.3520
     15 C         138.7772  144.6616  164.1847 C.3     1  UNL1        0.0346
     16 C         139.3694  145.1574  162.8988 C.3     1  UNL1        0.1423
     17 C         138.6090  142.5619  158.8131 C.3     1  UNL1        0.0221
     18 C         139.3861  142.8231  157.5569 C.3     1  UNL1        0.0017
     19 C         140.7180  142.1655  157.3484 C.3     1  UNL1        0.0001
     20 C         138.8311  143.7421  156.5092 C.3     1  UNL1        0.0001
     21 C         138.4582  139.0845  166.8350 C.2     1  UNL1        0.2312
     22 O         137.3784  138.3520  167.5750 O.2     1  UNL1       -0.2745
     23 N         139.4186  139.9605  167.5833 N.am    1  UNL1       -0.2454
     24 C         140.4984  140.6931  166.8434 C.ar    1  UNL1        0.1404
     25 C         141.7297  139.9622  166.3962 C.ar    1  UNL1        0.0712
     26 C         142.8094  140.6948  165.6562 C.ar    1  UNL1        0.1390
     27 C         142.6578  142.1581  165.3634 C.ar    1  UNL1        0.0307
     28 C         141.4266  142.8889  165.8105 C.ar    1  UNL1        0.0990
     29 N         140.3468  142.1563  166.5505 N.ar    1  UNL1       -0.2289
     30 C         143.7376  142.8906  164.6234 C.3     1  UNL1        0.0269
     31 C         143.8162  142.8001  163.1282 C.3     1  UNL1        0.0048
     32 C         144.7387  143.7137  165.3787 C.3     1  UNL1        0.0048
     33 O         144.0407  139.9640  165.2091 O.3     1  UNL1       -0.4716
     34 C         144.0083  139.1343  163.9599 C.3     1  UNL1        0.2525
     35 C         139.2994  140.1041  169.0717 C.3     1  UNL1        0.0812
     36 C         138.4539  140.3123  170.2931 C.3     1  UNL1        0.0219
     37 C         139.9383  140.1444  170.4283 C.3     1  UNL1        0.0219
@<TRIPOS>BOND
     1    15    16    1
     2    16    14    1
     3    14    13    1
     4    12    13    1
     5    12    17    1
     6    17    18    1
     7    18    19    1
     8    18    20    1
     9    12     8    1
    10     8     9   am
    11     9    10    2
    12     1     9    1
    13     1     2    1
    14     2     3    1
    15     3     4    1
    16     4     5    1
    17     5    21    1
    18    21    22    2
    19    21    23   am
    20    23    24    1
    21    24    25   ar
    22    25    26   ar
    23    26    33    1
    24    33    34    1
    25    26    27   ar
    26    27    30    1
    27    30    31    1
    28    30    32    1
    29    27    28   ar
    30    28    29   ar
    31    23    35    1
    32    35    36    1
    33    36    37    1
    34     5     6    1
    35     6     1    1
    36    29    24   ar
    37    37    35    1
    38     8    11    1
    39     3     7    1
@<TRIPOS>MOLECULE
*****
 37 39 0 0 0
SMALL
GASTEIGER

@<TRIPOS>ATOM
      1 C         143.8490  140.7946  165.0540 C.3     1  UNL1        0.0927
      2 C         144.9982  140.1559  164.3319 C.3     1  UNL1        0.0777
      3 N         145.4591  140.7108  163.0167 N.3     1  UNL1       -0.2967
      4 C         144.7709  141.9044  162.4237 C.3     1  UNL1        0.0777
      5 C         143.6218  142.5431  163.1459 C.3     1  UNL1        0.0933
      6 C         143.1608  141.9882  164.4610 C.3     1  UNL1        0.0210
      7 H         145.3800  139.9564  162.3348 H       1  UNL1        0.1233
      8 N         142.8472  141.1597  167.4232 N.am    1  UNL1       -0.3035
      9 C         143.3881  140.2397  166.3692 C.2     1  UNL1        0.2234
     10 O         143.4681  138.7648  166.6303 O.2     1  UNL1       -0.2751
     11 H         142.7947  142.1277  167.2518 H       1  UNL1        0.1495
     12 C         142.3862  140.6048  168.7383 C.3     1  UNL1        0.1011
     13 C         143.0360  141.0571  170.0123 C.3     1  UNL1        0.1615
     14 O         142.5193  142.2697  170.7283 O.3     1  UNL1       -0.3520
     15 C         140.3659  143.5236  169.9928 C.3     1  UNL1        0.0346
     16 C         141.8578  143.3720  169.9555 C.3     1  UNL1        0.1423
     17 C         141.2754  139.5975  168.7794 C.3     1  UNL1        0.0221
     18 C         139.8636  140.0266  168.5102 C.3     1  UNL1        0.0017
     19 C         138.9371  140.3171  169.6535 C.3     1  UNL1        0.0001
     20 C         139.3782  140.1651  167.0976 C.3     1  UNL1        0.0001
     21 C         142.9335  143.7367  162.5529 C.2     1  UNL1        0.2312
     22 O         143.6671  145.0389  162.4256 O.2     1  UNL1       -0.2745
     23 N         141.5119  143.6281  162.0871 N.am    1  UNL1       -0.2454
     24 C         140.7783  142.3259  162.2143 C.ar    1  UNL1        0.1404
     25 C         141.1384  141.1723  161.3256 C.ar    1  UNL1        0.0712
     26 C         140.4049  139.8701  161.4528 C.ar    1  UNL1        0.1390
     27 C         139.3113  139.7215  162.4687 C.ar    1  UNL1        0.0307
     28 C         138.9513  140.8750  163.3574 C.ar    1  UNL1        0.0990
     29 N         139.6848  142.1772  163.2302 N.ar    1  UNL1       -0.2289
     30 C         138.5778  138.4192  162.5959 C.3     1  UNL1        0.0269
     31 C         138.9314  137.4637  163.6968 C.3     1  UNL1        0.0048
     32 C         137.4907  138.0726  161.6222 C.3     1  UNL1        0.0048
     33 O         140.7649  138.7166  160.5641 O.3     1  UNL1       -0.4716
     34 C         142.0741  138.0080  160.7484 C.3     1  UNL1        0.2525
     35 C         140.8236  144.8218  161.4941 C.3     1  UNL1        0.0812
     36 C         140.0278  146.0814  161.6672 C.3     1  UNL1        0.0219
     37 C         140.4274  145.6295  160.2939 C.3     1  UNL1        0.0219
@<TRIPOS>BOND
     1    15    16    1
     2    16    14    1
     3    14    13    1
     4    12    13    1
     5    12    17    1
     6    17    18    1
     7    18    19    1
     8    18    20    1
     9    12     8    1
    10     8     9   am
    11     9    10    2
    12     1     9    1
    13     1     2    1
    14     2     3    1
    15     3     4    1
    16     4     5    1
    17     5    21    1
    18    21    22    2
    19    21    23   am
    20    23    24    1
    21    24    25   ar
    22    25    26   ar
    23    26    33    1
    24    33    34    1
    25    26    27   ar
    26    27    30    1
    27    30    31    1
    28    30    32    1
    29    27    28   ar
    30    28    29   ar
    31    23    35    1
    32    35    36    1
    33    36    37    1
    34     5     6    1
    35     6     1    1
    36    29    24   ar
    37    37    35    1
    38     8    11    1
    39     3     7    1
@<TRIPOS>MOLECULE
*****
 37 39 0 0 0
SMALL
GASTEIGER

@<TRIPOS>ATOM
      1 C         143.1800  142.7883  162.1691 C.3     1  UNL1        0.0927
      2 C         144.3747  142.1111  161.5657 C.3     1  UNL1        0.0777
      3 N         145.5222  141.6966  162.4383 N.3     1  UNL1       -0.2967
      4 C         145.4751  141.9594  163.9143 C.3     1  UNL1        0.0777
      5 C         144.2804  142.6367  164.5178 C.3     1  UNL1        0.0933
      6 C         143.1329  143.0511  163.6452 C.3     1  UNL1        0.0210
      7 H         146.3507  142.1723  162.0809 H       1  UNL1        0.1233
      8 N         142.1056  144.4837  160.5195 N.am    1  UNL1       -0.3035
      9 C         142.0325  143.2028  161.2965 C.2     1  UNL1        0.2234
     10 O         140.8119  142.3363  161.2009 O.2     1  UNL1       -0.2751
     11 H         142.9068  145.0525  160.5823 H       1  UNL1        0.1495
     12 C         140.9581  144.8982  159.6469 C.3     1  UNL1        0.1011
     13 C         139.9916  145.9413  160.1241 C.3     1  UNL1        0.1615
     14 O         139.8528  146.2200  161.5915 O.3     1  UNL1       -0.3520
     15 C         139.7640  144.9567  163.8600 C.3     1  UNL1        0.0346
     16 C         139.2076  145.2066  162.4896 C.3     1  UNL1        0.1423
     17 C         140.7771  144.2695  158.2971 C.3     1  UNL1        0.0221
     18 C         140.8348  145.1173  157.0610 C.3     1  UNL1        0.0017
     19 C         142.1616  145.5267  156.4936 C.3     1  UNL1        0.0001
     20 C         139.5656  145.5559  156.3924 C.3     1  UNL1        0.0001
     21 C         144.2333  142.8995  165.9939 C.2     1  UNL1        0.2312
     22 O         145.1360  143.9322  166.6010 O.2     1  UNL1       -0.2745
     23 N         143.2834  142.1296  166.8628 N.am    1  UNL1       -0.2454
     24 C         142.3807  141.0969  166.2556 C.ar    1  UNL1        0.1404
     25 C         140.9182  141.3850  166.0871 C.ar    1  UNL1        0.0712
     26 C         140.0155  140.3523  165.4800 C.ar    1  UNL1        0.1390
     27 C         140.5752  139.0315  165.0414 C.ar    1  UNL1        0.0307
     28 C         142.0376  138.7435  165.2099 C.ar    1  UNL1        0.0990
     29 N         142.9403  139.7762  165.8170 N.ar    1  UNL1       -0.2289
     30 C         139.6725  137.9988  164.4343 C.3     1  UNL1        0.0269
     31 C         139.7451  137.7102  162.9642 C.3     1  UNL1        0.0048
     32 C         138.6971  137.2546  165.2975 C.3     1  UNL1        0.0048
     33 O         138.5531  140.6403  165.3115 O.3     1  UNL1       -0.4716
     34 C         138.1048  141.7203  164.3720 C.3     1  UNL1        0.2525
     35 C         143.2363  142.3925  168.3388 C.3     1  UNL1        0.0812
     36 C         142.4732  142.8140  169.5595 C.3     1  UNL1        0.0219
     37 C         143.9176  142.4261  169.6748 C.3     1  UNL1        0.0219
@<TRIPOS>BOND
     1    15    16    1
     2    16    14    1
     3    14    13    1
     4    12    13    1
     5    12    17    1
     6    17    18    1
     7    18    19    1
     8    18    20    1
     9    12     8    1
    10     8     9   am
    11     9    10    2
    12     1     9    1
    13     1     2    1
    14     2     3    1
    15     3     4    1
    16     4     5    1
    17     5    21    1
    18    21    22    2
    19    21    23   am
    20    23    24    1
    21    24    25   ar
    22    25    26   ar
    23    26    33    1
    24    33    34    1
    25    26    27   ar
    26    27    30    1
    27    30    31    1
    28    30    32    1
    29    27    28   ar
    30    28    29   ar
    31    23    35    1
    32    35    36    1
    33    36    37    1
    34     5     6    1
    35     6     1    1
    36    29    24   ar
    37    37    35    1
    38     8    11    1
    39     3     7    1
@<TRIPOS>MOLECULE
*****
 37 39 0 0 0
SMALL
GASTEIGER

@<TRIPOS>ATOM
      1 C         142.5414  138.7997  162.3870 C.3     1  UNL1        0.0927
      2 C         141.6211  137.6370  162.1610 C.3     1  UNL1        0.0777
      3 N         141.1033  136.8521  163.3296 N.3     1  UNL1       -0.2967
      4 C         141.5057  137.2299  164.7243 C.3     1  UNL1        0.0777
      5 C         142.4260  138.3926  164.9504 C.3     1  UNL1        0.0933
      6 C         142.9439  139.1775  163.7817 C.3     1  UNL1        0.0210
      7 H         141.3986  135.8859  163.1895 H       1  UNL1        0.1233
      8 N         142.1188  140.0294  160.1378 N.am    1  UNL1       -0.3035
      9 C         143.0592  139.5846  161.2184 C.2     1  UNL1        0.2234
     10 O         144.5175  139.9247  161.1303 O.2     1  UNL1       -0.2751
     11 H         141.1617  139.8062  160.1956 H       1  UNL1        0.1495
     12 C         142.6367  140.8144  158.9691 C.3     1  UNL1        0.1011
     13 C         143.2935  140.1059  157.8217 C.3     1  UNL1        0.1615
     14 O         143.5340  138.6270  157.8920 O.3     1  UNL1       -0.3520
     15 C         141.1587  137.7813  157.2651 C.3     1  UNL1        0.0346
     16 C         142.6495  137.6862  157.1288 C.3     1  UNL1        0.1423
     17 C         142.4976  142.3078  158.9479 C.3     1  UNL1        0.0221
     18 C         142.4527  143.0752  160.2360 C.3     1  UNL1        0.0017
     19 C         141.1592  143.6676  160.7113 C.3     1  UNL1        0.0001
     20 C         143.7012  143.2501  161.0488 C.3     1  UNL1        0.0001
     21 C         142.8286  138.7704  166.3452 C.2     1  UNL1        0.2312
     22 O         143.8429  137.9470  167.0821 O.2     1  UNL1       -0.2745
     23 N         142.2167  139.9716  167.0030 N.am    1  UNL1       -0.2454
     24 C         141.2024  140.7950  166.2660 C.ar    1  UNL1        0.1404
     25 C         141.5827  142.1379  165.7164 C.ar    1  UNL1        0.0712
     26 C         140.5684  142.9613  164.9795 C.ar    1  UNL1        0.1390
     27 C         139.1737  142.4419  164.7922 C.ar    1  UNL1        0.0307
     28 C         138.7933  141.0991  165.3419 C.ar    1  UNL1        0.0990
     29 N         139.8077  140.2756  166.0788 N.ar    1  UNL1       -0.2289
     30 C         138.1593  143.2653  164.0553 C.3     1  UNL1        0.0269
     31 C         137.4898  144.4197  164.7402 C.3     1  UNL1        0.0048
     32 C         137.8144  142.9343  162.6335 C.3     1  UNL1        0.0048
     33 O         140.9487  144.3042  164.4298 O.3     1  UNL1       -0.4716
     34 C         142.3836  144.6063  164.1139 C.3     1  UNL1        0.2525
     35 C         142.6192  140.3494  168.3977 C.3     1  UNL1        0.0812
     36 C         142.7583  139.9991  169.8496 C.3     1  UNL1        0.0219
     37 C         143.1773  141.3541  169.3616 C.3     1  UNL1        0.0219
@<TRIPOS>BOND
     1    15    16    1
     2    16    14    1
     3    14    13    1
     4    12    13    1
     5    12    17    1
     6    17    18    1
     7    18    19    1
     8    18    20    1
     9    12     8    1
    10     8     9   am
    11     9    10    2
    12     1     9    1
    13     1     2    1
    14     2     3    1
    15     3     4    1
    16     4     5    1
    17     5    21    1
    18    21    22    2
    19    21    23   am
    20    23    24    1
    21    24    25   ar
    22    25    26   ar
    23    26    33    1
    24    33    34    1
    25    26    27   ar
    26    27    30    1
    27    30    31    1
    28    30    32    1
    29    27    28   ar
    30    28    29   ar
    31    23    35    1
    32    35    36    1
    33    36    37    1
    34     5     6    1
    35     6     1    1
    36    29    24   ar
    37    37    35    1
    38     8    11    1
    39     3     7    1
@<TRIPOS>MOLECULE
*****
 37 39 0 0 0
SMALL
GASTEIGER

@<TRIPOS>ATOM
      1 C         139.0640  139.6646  161.7875 C.3     1  UNL1        0.0927
      2 C         138.0316  140.6392  161.3036 C.3     1  UNL1        0.0777
      3 N         137.1656  141.3657  162.2897 N.3     1  UNL1       -0.2967
      4 C         137.3320  141.1175  163.7596 C.3     1  UNL1        0.0777
      5 C         138.3645  140.1429  164.2434 C.3     1  UNL1        0.0933
      6 C         139.2305  139.4164  163.2574 C.3     1  UNL1        0.0210
      7 H         136.1993  141.1341  162.0595 H       1  UNL1        0.1233
      8 N         140.0918  139.4721  159.4091 N.am    1  UNL1       -0.3035
      9 C         139.9300  138.9381  160.8014 C.2     1  UNL1        0.2234
     10 O         140.6342  137.6775  161.2077 O.2     1  UNL1       -0.2751
     11 H         139.6296  140.2995  159.1425 H       1  UNL1        0.1495
     12 C         140.9578  138.7456  158.4231 C.3     1  UNL1        0.1011
     13 C         142.4216  139.0610  158.3354 C.3     1  UNL1        0.1615
     14 O         143.3967  138.3496  159.2259 O.3     1  UNL1       -0.3520
     15 C         143.3818  140.3687  160.8608 C.3     1  UNL1        0.0346
     16 C         143.8383  138.9831  160.5118 C.3     1  UNL1        0.1423
     17 C         140.3599  137.7037  157.5247 C.3     1  UNL1        0.0221
     18 C         141.1016  137.2534  156.3012 C.3     1  UNL1        0.0017
     19 C         141.9653  136.0283  156.3563 C.3     1  UNL1        0.0001
     20 C         140.9795  138.0281  155.0225 C.3     1  UNL1        0.0001
     21 C         138.5309  139.8947  165.7134 C.2     1  UNL1        0.2312
     22 O         137.5704  138.9974  166.4360 O.2     1  UNL1       -0.2745
     23 N         139.6579  140.5438  166.4607 N.am    1  UNL1       -0.2454
     24 C         140.6185  141.4411  165.7381 C.ar    1  UNL1        0.1404
     25 C         142.0343  140.9990  165.5142 C.ar    1  UNL1        0.0712
     26 C         142.9949  141.8963  164.7916 C.ar    1  UNL1        0.1390
     27 C         142.5396  143.2358  164.2929 C.ar    1  UNL1        0.0307
     28 C         141.1239  143.6779  164.5168 C.ar    1  UNL1        0.0990
     29 N         140.1633  142.7805  165.2394 N.ar    1  UNL1       -0.2289
     30 C         143.5002  144.1331  163.5703 C.3     1  UNL1        0.0269
     31 C         144.0773  143.7079  162.2527 C.3     1  UNL1        0.0048
     32 C         143.8836  145.4556  164.1653 C.3     1  UNL1        0.0048
     33 O         144.4106  141.4542  164.5677 O.3     1  UNL1       -0.4716
     34 C         144.7150  140.0048  164.3295 C.3     1  UNL1        0.2525
     35 C         139.8244  140.2956  167.9307 C.3     1  UNL1        0.0812
     36 C         140.6830  139.8831  169.0894 C.3     1  UNL1        0.0219
     37 C         139.2542  140.2783  169.3180 C.3     1  UNL1        0.0219
@<TRIPOS>BOND
     1    15    16    1
     2    16    14    1
     3    14    13    1
     4    12    13    1
     5    12    17    1
     6    17    18    1
     7    18    19    1
     8    18    20    1
     9    12     8    1
    10     8     9   am
    11     9    10    2
    12     1     9    1
    13     1     2    1
    14     2     3    1
    15     3     4    1
    16     4     5    1
    17     5    21    1
    18    21    22    2
    19    21    23   am
    20    23    24    1
    21    24    25   ar
    22    25    26   ar
    23    26    33    1
    24    33    34    1
    25    26    27   ar
    26    27    30    1
    27    30    31    1
    28    30    32    1
    29    27    28   ar
    30    28    29   ar
    31    23    35    1
    32    35    36    1
    33    36    37    1
    34     5     6    1
    35     6     1    1
    36    29    24   ar
    37    37    35    1
    38     8    11    1
    39     3     7    1
@<TRIPOS>MOLECULE
*****
 37 39 0 0 0
SMALL
GASTEIGER

@<TRIPOS>ATOM
      1 C         138.3760  139.8651  162.1536 C.3     1  UNL1        0.0927
      2 C         138.4664  138.4700  161.6100 C.3     1  UNL1        0.0777
      3 N         138.6077  137.3075  162.5474 N.3     1  UNL1       -0.2967
      4 C         138.6585  137.5402  164.0284 C.3     1  UNL1        0.0777
      5 C         138.5681  138.9353  164.5719 C.3     1  UNL1        0.0933
      6 C         138.4268  140.0977  163.6345 C.3     1  UNL1        0.0210
      7 H         139.4722  136.8289  162.2947 H       1  UNL1        0.1233
      8 N         138.7876  140.9404  159.8246 N.am    1  UNL1       -0.3035
      9 C         138.2347  141.0276  161.2162 C.2     1  UNL1        0.2234
     10 O         137.5404  142.2772  161.6704 O.2     1  UNL1       -0.2751
     11 H         139.2433  140.1202  159.5264 H       1  UNL1        0.1495
     12 C         138.6463  142.1028  158.8872 C.3     1  UNL1        0.1011
     13 C         137.7595  141.9914  157.6825 C.3     1  UNL1        0.1615
     14 O         137.4413  143.2115  156.8700 O.3     1  UNL1       -0.3520
     15 C         139.1674  144.7298  155.6595 C.3     1  UNL1        0.0346
     16 C         138.2578  143.5371  155.6546 C.3     1  UNL1        0.1423
     17 C         139.3919  143.3767  159.1544 C.3     1  UNL1        0.0221
     18 C         140.8855  143.3570  159.2913 C.3     1  UNL1        0.0017
     19 C         141.7242  142.6648  158.2582 C.3     1  UNL1        0.0001
     20 C         141.5404  144.0296  160.4613 C.3     1  UNL1        0.0001
     21 C         138.6189  139.1680  166.0529 C.2     1  UNL1        0.2312
     22 O         137.4489  138.7901  166.9121 O.2     1  UNL1       -0.2745
     23 N         139.8398  139.7785  166.6747 N.am    1  UNL1       -0.2454
     24 C         141.0099  140.1565  165.8156 C.ar    1  UNL1        0.1404
     25 C         141.1875  141.5789  165.3737 C.ar    1  UNL1        0.0712
     26 C         142.3575  141.9568  164.5145 C.ar    1  UNL1        0.1390
     27 C         143.3500  140.9123  164.0973 C.ar    1  UNL1        0.0307
     28 C         143.1723  139.4899  164.5391 C.ar    1  UNL1        0.0990
     29 N         142.0023  139.1120  165.3983 N.ar    1  UNL1       -0.2289
     30 C         144.5200  141.2902  163.2381 C.3     1  UNL1        0.0269
     31 C         145.8494  141.5831  163.8680 C.3     1  UNL1        0.0048
     32 C         144.3606  141.3751  161.7490 C.3     1  UNL1        0.0048
     33 O         142.5352  143.3792  164.0727 O.3     1  UNL1       -0.4716
     34 C         141.4100  144.3589  164.2280 C.3     1  UNL1        0.2525
     35 C         139.8907  140.0112  168.1558 C.3     1  UNL1        0.0812
     36 C         139.2038  140.3808  169.4370 C.3     1  UNL1        0.0219
     37 C         140.6656  140.0447  169.4396 C.3     1  UNL1        0.0219
@<TRIPOS>BOND
     1    15    16    1
     2    16    14    1
     3    14    13    1
     4    12    13    1
     5    12    17    1
     6    17    18    1
     7    18    19    1
     8    18    20    1
     9    12     8    1
    10     8     9   am
    11     9    10    2
    12     1     9    1
    13     1     2    1
    14     2     3    1
    15     3     4    1
    16     4     5    1
    17     5    21    1
    18    21    22    2
    19    21    23   am
    20    23    24    1
    21    24    25   ar
    22    25    26   ar
    23    26    33    1
    24    33    34    1
    25    26    27   ar
    26    27    30    1
    27    30    31    1
    28    30    32    1
    29    27    28   ar
    30    28    29   ar
    31    23    35    1
    32    35    36    1
    33    36    37    1
    34     5     6    1
    35     6     1    1
    36    29    24   ar
    37    37    35    1
    38     8    11    1
    39     3     7    1
@<TRIPOS>MOLECULE
*****
 37 39 0 0 0
SMALL
GASTEIGER

@<TRIPOS>ATOM
      1 C         141.4833  143.8894  163.1570 C.3     1  UNL1        0.0927
      2 C         141.2785  145.3496  163.4322 C.3     1  UNL1        0.0777
      3 N         140.5383  146.2023  162.4448 N.3     1  UNL1       -0.2967
      4 C         140.0029  145.5947  161.1822 C.3     1  UNL1        0.0777
      5 C         140.2077  144.1345  160.9070 C.3     1  UNL1        0.0933
      6 C         140.9479  143.2819  161.8945 C.3     1  UNL1        0.0210
      7 H         141.1744  146.9491  162.1655 H       1  UNL1        0.1233
      8 N         141.4653  142.2428  165.1666 N.am    1  UNL1       -0.3035
      9 C         142.2235  143.0367  164.1445 C.2     1  UNL1        0.2234
     10 O         143.7219  142.9780  164.1098 O.2     1  UNL1       -0.2751
     11 H         140.4818  142.2814  165.1894 H       1  UNL1        0.1495
     12 C         142.2055  141.3901  166.1540 C.3     1  UNL1        0.1011
     13 C         142.9715  142.0314  167.2729 C.3     1  UNL1        0.1615
     14 O         142.8208  141.5197  168.6749 O.3     1  UNL1       -0.3520
     15 C         140.7613  142.9987  169.2414 C.3     1  UNL1        0.0346
     16 C         141.5307  141.7225  169.4126 C.3     1  UNL1        0.1423
     17 C         142.1797  139.8961  166.0225 C.3     1  UNL1        0.0221
     18 C         143.4410  139.1494  165.7037 C.3     1  UNL1        0.0017
     19 C         143.8848  138.0174  166.5821 C.3     1  UNL1        0.0001
     20 C         144.2585  139.5347  164.5065 C.3     1  UNL1        0.0001
     21 C         139.6723  143.5269  159.6444 C.2     1  UNL1        0.2312
     22 O         139.7665  144.2804  158.3508 O.2     1  UNL1       -0.2745
     23 N         139.0427  142.1658  159.6753 N.am    1  UNL1       -0.2454
     24 C         138.9485  141.4123  160.9689 C.ar    1  UNL1        0.1404
     25 C         140.0517  140.4812  161.3766 C.ar    1  UNL1        0.0712
     26 C         139.9575  139.7277  162.6702 C.ar    1  UNL1        0.1390
     27 C         138.7600  139.9052  163.5560 C.ar    1  UNL1        0.0307
     28 C         137.6569  140.8362  163.1483 C.ar    1  UNL1        0.0990
     29 N         137.7511  141.5897  161.8547 N.ar    1  UNL1       -0.2289
     30 C         138.6658  139.1517  164.8496 C.3     1  UNL1        0.0269
     31 C         138.5058  139.8966  166.1416 C.3     1  UNL1        0.0048
     32 C         138.7316  137.6530  164.8511 C.3     1  UNL1        0.0048
     33 O         141.0606  138.7967  163.0779 O.3     1  UNL1       -0.4716
     34 C         141.6059  137.8038  162.0946 C.3     1  UNL1        0.2525
     35 C         138.5073  141.5582  158.4127 C.3     1  UNL1        0.0812
     36 C         138.6121  140.5428  157.3137 C.3     1  UNL1        0.0219
     37 C         137.4752  141.5212  157.3248 C.3     1  UNL1        0.0219
@<TRIPOS>BOND
     1    15    16    1
     2    16    14    1
     3    14    13    1
     4    12    13    1
     5    12    17    1
     6    17    18    1
     7    18    19    1
     8    18    20    1
     9    12     8    1
    10     8     9   am
    11     9    10    2
    12     1     9    1
    13     1     2    1
    14     2     3    1
    15     3     4    1
    16     4     5    1
    17     5    21    1
    18    21    22    2
    19    21    23   am
    20    23    24    1
    21    24    25   ar
    22    25    26   ar
    23    26    33    1
    24    33    34    1
    25    26    27   ar
    26    27    30    1
    27    30    31    1
    28    30    32    1
    29    27    28   ar
    30    28    29   ar
    31    23    35    1
    32    35    36    1
    33    36    37    1
    34     5     6    1
    35     6     1    1
    36    29    24   ar
    37    37    35    1
    38     8    11    1
    39     3     7    1
