@<TRIPOS>MOLECULE
*****
 31 35 0 0 0
SMALL
GASTEIGER

@<TRIPOS>ATOM
      1 N         143.0247  142.6770  169.9295 N.pl3   1  UNL1       -0.2781
      2 C         143.0478  142.1177  168.5378 C.3     1  UNL1        0.0950
      3 C         141.7817  141.3408  168.3296 C.3     1  UNL1        0.0388
      4 C         141.0135  140.5149  167.3407 C.3     1  UNL1        0.0741
      5 N         139.7331  140.0836  167.9926 N.3     1  UNL1       -0.2688
      6 C         139.7101  140.6429  169.3842 C.3     1  UNL1        0.0741
      7 C         140.9762  141.4199  169.5925 C.3     1  UNL1        0.0388
      8 C         141.7444  142.2457  170.5813 C.3     1  UNL1        0.0950
      9 C         146.2332  145.2049  171.8176 C.ar    1  UNL1        0.0937
     10 C         146.6067  144.1037  170.8700 C.ar    1  UNL1        0.1079
     11 N         145.5371  143.2610  170.2407 N.ar    1  UNL1       -0.2119
     12 C         144.0942  143.5196  170.5589 C.ar    1  UNL1        0.2202
     13 N         143.7209  144.6208  171.5065 N.ar    1  UNL1       -0.2119
     14 C         144.7904  145.4635  172.1359 C.ar    1  UNL1        0.1079
     15 O         147.1721  147.5418  172.4559 O.2     1  UNL1       -0.2680
     16 C         147.3028  146.0476  172.4470 C.2     1  UNL1        0.2708
     17 N         148.5030  145.3959  173.0675 N.am    1  UNL1       -0.1934
     18 O         149.5725  146.2385  173.6968 O.3     1  UNL1       -0.2949
     19 H         148.5887  144.4152  173.0616 H       1  UNL1        0.1825
     20 H         149.3346  147.1755  173.6172 H       1  UNL1        0.2414
     21 C         138.6636  139.2410  167.3632 C.3     1  UNL1        0.0991
     22 C         138.6371  139.0506  165.8755 C.ar    1  UNL1       -0.0061
     23 C         139.0157  137.7261  165.2820 C.ar    1  UNL1       -0.0029
     24 C         138.9892  137.5357  163.7944 C.ar    1  UNL1       -0.0003
     25 C         138.5842  138.6699  162.9002 C.ar    1  UNL1       -0.0000
     26 C         138.5578  138.4796  161.4126 C.ar    1  UNL1       -0.0000
     27 C         138.1528  139.6138  160.5185 C.ar    1  UNL1       -0.0000
     28 C         137.7743  140.9384  161.1120 C.ar    1  UNL1       -0.0000
     29 C         137.8007  141.1287  162.5996 C.ar    1  UNL1       -0.0000
     30 C         138.2057  139.9945  163.4937 C.ar    1  UNL1       -0.0003
     31 C         138.2322  140.1849  164.9814 C.ar    1  UNL1       -0.0029
@<TRIPOS>BOND
     1    15    16    2
     2    16    17   am
     3    17    18    1
     4    16     9    1
     5     9    10   ar
     6    10    11   ar
     7    11    12   ar
     8    12     1    1
     9     1     2    1
    10     3     2    1
    11     3     4    1
    12     4     5    1
    13     5    21    1
    14    21    22    1
    15    22    23   ar
    16    23    24   ar
    17    24    25   ar
    18    25    26   ar
    19    26    27   ar
    20    27    28   ar
    21    28    29   ar
    22    29    30   ar
    23    30    31   ar
    24     5     6    1
    25     7     6    1
    26     7     8    1
    27    12    13   ar
    28    13    14   ar
    29    14     9   ar
    30     8     1    1
    31     7     3    1
    32    31    22   ar
    33    30    25   ar
    34    17    19    1
    35    18    20    1
@<TRIPOS>MOLECULE
*****
 31 35 0 0 0
SMALL
GASTEIGER

@<TRIPOS>ATOM
      1 N         141.0904  138.8715  163.0226 N.pl3   1  UNL1       -0.2781
      2 C         142.2725  138.0354  162.6304 C.3     1  UNL1        0.0950
      3 C         142.3147  137.9663  161.1327 C.3     1  UNL1        0.0388
      4 C         143.0715  137.4068  159.9646 C.3     1  UNL1        0.0741
      5 N         142.3831  137.8542  158.7092 N.3     1  UNL1       -0.2688
      6 C         141.2011  138.6902  159.1014 C.3     1  UNL1        0.0741
      7 C         141.1588  138.7595  160.5992 C.3     1  UNL1        0.0388
      8 C         140.4021  139.3189  161.7672 C.3     1  UNL1        0.0950
      9 C         139.8302  139.8631  167.2272 C.ar    1  UNL1        0.0937
     10 C         138.8365  139.2867  166.2626 C.ar    1  UNL1        0.1079
     11 N         139.2565  138.9562  164.8611 N.ar    1  UNL1       -0.2119
     12 C         140.6703  139.2020  164.4242 C.ar    1  UNL1        0.2202
     13 N         141.6640  139.7783  165.3887 N.ar    1  UNL1       -0.2119
     14 C         141.2439  140.1089  166.7903 C.ar    1  UNL1        0.1079
     15 O         140.2039  141.1763  169.4376 O.2     1  UNL1       -0.2680
     16 C         139.4102  140.1936  168.6288 C.2     1  UNL1        0.2708
     17 N         138.1963  139.5414  169.2215 N.am    1  UNL1       -0.1934
     18 O         137.7762  139.8719  170.6230 O.3     1  UNL1       -0.2949
     19 H         137.6753  138.8964  168.6906 H       1  UNL1        0.1825
     20 H         138.3924  140.5187  171.0012 H       1  UNL1        0.2414
     21 C         142.8032  137.5237  157.3076 C.3     1  UNL1        0.0991
     22 C         142.4473  136.1938  156.7119 C.ar    1  UNL1       -0.0061
     23 C         141.4205  136.1110  155.6216 C.ar    1  UNL1       -0.0029
     24 C         141.0646  134.7812  155.0259 C.ar    1  UNL1       -0.0003
     25 C         141.7355  133.5341  155.5205 C.ar    1  UNL1       -0.0000
     26 C         141.3797  132.2043  154.9248 C.ar    1  UNL1       -0.0000
     27 C         142.0506  130.9572  155.4194 C.ar    1  UNL1       -0.0000
     28 C         143.0774  131.0400  156.5097 C.ar    1  UNL1       -0.0000
     29 C         143.4333  132.3698  157.1054 C.ar    1  UNL1       -0.0000
     30 C         142.7624  133.6168  156.6108 C.ar    1  UNL1       -0.0003
     31 C         143.1182  134.9467  157.2065 C.ar    1  UNL1       -0.0029
@<TRIPOS>BOND
     1    15    16    2
     2    16    17   am
     3    17    18    1
     4    16     9    1
     5     9    10   ar
     6    10    11   ar
     7    11    12   ar
     8    12     1    1
     9     1     2    1
    10     3     2    1
    11     3     4    1
    12     4     5    1
    13     5    21    1
    14    21    22    1
    15    22    23   ar
    16    23    24   ar
    17    24    25   ar
    18    25    26   ar
    19    26    27   ar
    20    27    28   ar
    21    28    29   ar
    22    29    30   ar
    23    30    31   ar
    24     5     6    1
    25     7     6    1
    26     7     8    1
    27    12    13   ar
    28    13    14   ar
    29    14     9   ar
    30     8     1    1
    31     7     3    1
    32    31    22   ar
    33    30    25   ar
    34    17    19    1
    35    18    20    1
@<TRIPOS>MOLECULE
*****
 31 35 0 0 0
SMALL
GASTEIGER

@<TRIPOS>ATOM
      1 N         141.9959  139.1318  163.6936 N.pl3   1  UNL1       -0.2781
      2 C         140.8900  138.9543  162.6958 C.3     1  UNL1        0.0950
      3 C         141.5109  138.7863  161.3408 C.3     1  UNL1        0.0388
      4 C         141.2111  138.5728  159.8866 C.3     1  UNL1        0.0741
      5 N         142.5155  138.5145  159.1482 N.3     1  UNL1       -0.2688
      6 C         143.6213  138.6919  160.1459 C.3     1  UNL1        0.0741
      7 C         143.0005  138.8599  161.5011 C.3     1  UNL1        0.0388
      8 C         143.3002  139.0734  162.9551 C.3     1  UNL1        0.0950
      9 C         141.4895  139.7334  168.1244 C.ar    1  UNL1        0.0937
     10 C         140.3674  140.0724  167.1884 C.ar    1  UNL1        0.1079
     11 N         140.5362  139.8719  165.7114 N.ar    1  UNL1       -0.2119
     12 C         141.8271  139.3323  165.1705 C.ar    1  UNL1        0.2202
     13 N         142.9492  138.9934  166.1065 N.ar    1  UNL1       -0.2119
     14 C         142.7803  139.1939  167.5834 C.ar    1  UNL1        0.1079
     15 O         140.0016  139.6404  170.2521 O.2     1  UNL1       -0.2680
     16 C         141.3207  139.9340  169.6013 C.2     1  UNL1        0.2708
     17 N         142.4711  140.4282  170.4274 N.am    1  UNL1       -0.1934
     18 O         142.3023  140.6288  171.9043 O.3     1  UNL1       -0.2949
     19 H         143.3370  140.6209  170.0002 H       1  UNL1        0.1825
     20 H         141.3967  140.3947  172.1609 H       1  UNL1        0.2414
     21 C         142.6843  138.3139  157.6712 C.3     1  UNL1        0.0991
     22 C         142.4230  136.9681  157.0624 C.ar    1  UNL1       -0.0061
     23 C         141.3691  136.8146  156.0061 C.ar    1  UNL1       -0.0029
     24 C         141.1078  135.4689  155.3973 C.ar    1  UNL1       -0.0003
     25 C         141.9004  134.2766  155.8448 C.ar    1  UNL1       -0.0000
     26 C         141.6391  132.9309  155.2360 C.ar    1  UNL1       -0.0000
     27 C         142.4317  131.7386  155.6834 C.ar    1  UNL1       -0.0000
     28 C         143.4856  131.8921  156.7397 C.ar    1  UNL1       -0.0000
     29 C         143.7469  133.2378  157.3485 C.ar    1  UNL1       -0.0000
     30 C         142.9543  134.4300  156.9011 C.ar    1  UNL1       -0.0003
     31 C         143.2156  135.7759  157.5099 C.ar    1  UNL1       -0.0029
@<TRIPOS>BOND
     1    15    16    2
     2    16    17   am
     3    17    18    1
     4    16     9    1
     5     9    10   ar
     6    10    11   ar
     7    11    12   ar
     8    12     1    1
     9     1     2    1
    10     3     2    1
    11     3     4    1
    12     4     5    1
    13     5    21    1
    14    21    22    1
    15    22    23   ar
    16    23    24   ar
    17    24    25   ar
    18    25    26   ar
    19    26    27   ar
    20    27    28   ar
    21    28    29   ar
    22    29    30   ar
    23    30    31   ar
    24     5     6    1
    25     7     6    1
    26     7     8    1
    27    12    13   ar
    28    13    14   ar
    29    14     9   ar
    30     8     1    1
    31     7     3    1
    32    31    22   ar
    33    30    25   ar
    34    17    19    1
    35    18    20    1
@<TRIPOS>MOLECULE
*****
 31 35 0 0 0
SMALL
GASTEIGER

@<TRIPOS>ATOM
      1 N         139.9911  138.4685  161.7187 N.pl3   1  UNL1       -0.2781
      2 C         139.1788  138.5506  160.4603 C.3     1  UNL1        0.0950
      3 C         140.1201  138.4727  159.2952 C.3     1  UNL1        0.0388
      4 C         140.1998  138.4753  157.7973 C.3     1  UNL1        0.0741
      5 N         141.6432  138.3465  157.4097 N.3     1  UNL1       -0.2688
      6 C         142.4555  138.2644  158.6681 C.3     1  UNL1        0.0741
      7 C         141.5142  138.3423  159.8334 C.3     1  UNL1        0.0388
      8 C         141.4344  138.3398  161.3312 C.3     1  UNL1        0.0950
      9 C         138.3806  138.5874  165.9190 C.ar    1  UNL1        0.0937
     10 C         138.3798  139.8308  165.0800 C.ar    1  UNL1        0.1079
     11 N         138.9166  139.7912  163.6799 N.ar    1  UNL1       -0.2119
     12 C         139.4543  138.5081  163.1188 C.ar    1  UNL1        0.2202
     13 N         139.4551  137.2647  163.9578 N.ar    1  UNL1       -0.2119
     14 C         138.9182  137.3044  165.3579 C.ar    1  UNL1        0.1079
     15 O         136.6402  137.8097  167.6843 O.2     1  UNL1       -0.2680
     16 C         137.8438  138.6270  167.3191 C.2     1  UNL1        0.2708
     17 N         138.5107  139.4839  168.3540 N.am    1  UNL1       -0.1934
     18 O         137.9738  139.5236  169.7541 O.3     1  UNL1       -0.2949
     19 H         139.3006  140.0203  168.1144 H       1  UNL1        0.1825
     20 H         137.1997  138.9428  169.8202 H       1  UNL1        0.2414
     21 C         142.1801  138.3069  156.0096 C.3     1  UNL1        0.0991
     22 C         142.1692  137.0204  155.2383 C.ar    1  UNL1       -0.0061
     23 C         141.4932  136.9534  153.9010 C.ar    1  UNL1       -0.0029
     24 C         141.4823  135.6670  153.1297 C.ar    1  UNL1       -0.0003
     25 C         142.1474  134.4474  153.6958 C.ar    1  UNL1       -0.0000
     26 C         142.1364  133.1610  152.9245 C.ar    1  UNL1       -0.0000
     27 C         142.8015  131.9415  153.4906 C.ar    1  UNL1       -0.0000
     28 C         143.4775  132.0085  154.8280 C.ar    1  UNL1       -0.0000
     29 C         143.4884  133.2949  155.5992 C.ar    1  UNL1       -0.0000
     30 C         142.8233  134.5144  155.0331 C.ar    1  UNL1       -0.0003
     31 C         142.8342  135.8009  155.8044 C.ar    1  UNL1       -0.0029
@<TRIPOS>BOND
     1    15    16    2
     2    16    17   am
     3    17    18    1
     4    16     9    1
     5     9    10   ar
     6    10    11   ar
     7    11    12   ar
     8    12     1    1
     9     1     2    1
    10     3     2    1
    11     3     4    1
    12     4     5    1
    13     5    21    1
    14    21    22    1
    15    22    23   ar
    16    23    24   ar
    17    24    25   ar
    18    25    26   ar
    19    26    27   ar
    20    27    28   ar
    21    28    29   ar
    22    29    30   ar
    23    30    31   ar
    24     5     6    1
    25     7     6    1
    26     7     8    1
    27    12    13   ar
    28    13    14   ar
    29    14     9   ar
    30     8     1    1
    31     7     3    1
    32    31    22   ar
    33    30    25   ar
    34    17    19    1
    35    18    20    1
@<TRIPOS>MOLECULE
*****
 31 35 0 0 0
SMALL
GASTEIGER

@<TRIPOS>ATOM
      1 N         143.2844  140.0254  159.4323 N.pl3   1  UNL1       -0.2781
      2 C         141.8566  140.3836  159.7210 C.3     1  UNL1        0.0950
      3 C         141.3990  139.5596  160.8879 C.3     1  UNL1        0.0388
      4 C         140.2337  139.2718  161.7875 C.3     1  UNL1        0.0741
      5 N         140.6584  138.2264  162.7759 N.3     1  UNL1       -0.2688
      6 C         142.0861  137.8683  162.4872 C.3     1  UNL1        0.0741
      7 C         142.5439  138.6923  161.3203 C.3     1  UNL1        0.0388
      8 C         143.7090  138.9801  160.4207 C.3     1  UNL1        0.0950
      9 C         145.8441  141.7791  156.1731 C.ar    1  UNL1        0.0937
     10 C         145.3024  140.3872  156.0342 C.ar    1  UNL1        0.1079
     11 N         144.4491  139.8026  157.1206 N.ar    1  UNL1       -0.2119
     12 C         144.1376  140.6100  158.3459 C.ar    1  UNL1        0.2202
     13 N         144.6794  142.0018  158.4847 N.ar    1  UNL1       -0.2119
     14 C         145.5326  142.5863  157.3983 C.ar    1  UNL1        0.1079
     15 O         147.4610  141.4599  154.1646 O.2     1  UNL1       -0.2680
     16 C         146.6974  142.3636  155.0867 C.2     1  UNL1        0.2708
     17 N         146.7870  143.8519  154.9223 N.am    1  UNL1       -0.1934
     18 O         147.6402  144.4365  153.8359 O.3     1  UNL1       -0.2949
     19 H         146.2858  144.4451  155.5275 H       1  UNL1        0.1825
     20 H         148.0614  143.7205  153.3350 H       1  UNL1        0.2414
     21 C         139.8052  137.6419  163.8623 C.3     1  UNL1        0.0991
     22 C         139.6733  138.3526  165.1767 C.ar    1  UNL1       -0.0061
     23 C         138.3640  138.3392  165.9086 C.ar    1  UNL1       -0.0029
     24 C         138.2322  139.0499  167.2229 C.ar    1  UNL1       -0.0003
     25 C         139.4096  139.7741  167.8054 C.ar    1  UNL1       -0.0000
     26 C         139.2777  140.4847  169.1197 C.ar    1  UNL1       -0.0000
     27 C         140.4551  141.2088  169.7022 C.ar    1  UNL1       -0.0000
     28 C         141.7644  141.2222  168.9704 C.ar    1  UNL1       -0.0000
     29 C         141.8963  140.5116  167.6561 C.ar    1  UNL1       -0.0000
     30 C         140.7189  139.7875  167.0736 C.ar    1  UNL1       -0.0003
     31 C         140.8507  139.0767  165.7592 C.ar    1  UNL1       -0.0029
@<TRIPOS>BOND
     1    15    16    2
     2    16    17   am
     3    17    18    1
     4    16     9    1
     5     9    10   ar
     6    10    11   ar
     7    11    12   ar
     8    12     1    1
     9     1     2    1
    10     3     2    1
    11     3     4    1
    12     4     5    1
    13     5    21    1
    14    21    22    1
    15    22    23   ar
    16    23    24   ar
    17    24    25   ar
    18    25    26   ar
    19    26    27   ar
    20    27    28   ar
    21    28    29   ar
    22    29    30   ar
    23    30    31   ar
    24     5     6    1
    25     7     6    1
    26     7     8    1
    27    12    13   ar
    28    13    14   ar
    29    14     9   ar
    30     8     1    1
    31     7     3    1
    32    31    22   ar
    33    30    25   ar
    34    17    19    1
    35    18    20    1
@<TRIPOS>MOLECULE
*****
 31 35 0 0 0
SMALL
GASTEIGER

@<TRIPOS>ATOM
      1 N         135.1557  141.2992  155.7440 N.pl3   1  UNL1       -0.2781
      2 C         136.4608  141.2633  156.4827 C.3     1  UNL1        0.0950
      3 C         137.4191  142.1748  155.7750 C.3     1  UNL1        0.0388
      4 C         138.8180  142.7159  155.7942 C.3     1  UNL1        0.0741
      5 N         138.9697  143.6496  154.6300 N.3     1  UNL1       -0.2688
      6 C         137.6647  143.6855  153.8914 C.3     1  UNL1        0.0741
      7 C         136.7063  142.7740  154.5990 C.3     1  UNL1        0.0388
      8 C         135.3075  142.2329  154.5799 C.3     1  UNL1        0.0950
      9 C         131.4380  139.0081  156.8299 C.ar    1  UNL1        0.0937
     10 C         131.3274  140.3960  156.2716 C.ar    1  UNL1        0.1079
     11 N         132.5667  141.1597  155.9096 N.ar    1  UNL1       -0.2119
     12 C         133.9165  140.5355  156.1060 C.ar    1  UNL1        0.2202
     13 N         134.0270  139.1477  156.6643 N.ar    1  UNL1       -0.2119
     14 C         132.7877  138.3840  157.0263 C.ar    1  UNL1        0.1079
     15 O         129.6050  138.3843  158.5622 O.2     1  UNL1       -0.2680
     16 C         130.1987  138.2444  157.1919 C.2     1  UNL1        0.2708
     17 N         129.5532  137.3408  156.1834 N.am    1  UNL1       -0.1934
     18 O         128.3140  136.5771  156.5454 O.3     1  UNL1       -0.2949
     19 H         129.9429  137.2490  155.2840 H       1  UNL1        0.1825
     20 H         128.0651  136.7798  157.4607 H       1  UNL1        0.2414
     21 C         140.2090  144.4133  154.2681 C.3     1  UNL1        0.0991
     22 C         140.1561  145.9059  154.1282 C.ar    1  UNL1       -0.0061
     23 C         140.8907  146.5807  153.0078 C.ar    1  UNL1       -0.0029
     24 C         140.8378  148.0732  152.8679 C.ar    1  UNL1       -0.0003
     25 C         140.0504  148.8910  153.8483 C.ar    1  UNL1       -0.0000
     26 C         139.9976  150.3835  153.7084 C.ar    1  UNL1       -0.0000
     27 C         139.2102  151.2012  154.6888 C.ar    1  UNL1       -0.0000
     28 C         138.4756  150.5265  155.8092 C.ar    1  UNL1       -0.0000
     29 C         138.5285  149.0340  155.9491 C.ar    1  UNL1       -0.0000
     30 C         139.3159  148.2163  154.9687 C.ar    1  UNL1       -0.0003
     31 C         139.3687  146.7237  155.1086 C.ar    1  UNL1       -0.0029
@<TRIPOS>BOND
     1    15    16    2
     2    16    17   am
     3    17    18    1
     4    16     9    1
     5     9    10   ar
     6    10    11   ar
     7    11    12   ar
     8    12     1    1
     9     1     2    1
    10     3     2    1
    11     3     4    1
    12     4     5    1
    13     5    21    1
    14    21    22    1
    15    22    23   ar
    16    23    24   ar
    17    24    25   ar
    18    25    26   ar
    19    26    27   ar
    20    27    28   ar
    21    28    29   ar
    22    29    30   ar
    23    30    31   ar
    24     5     6    1
    25     7     6    1
    26     7     8    1
    27    12    13   ar
    28    13    14   ar
    29    14     9   ar
    30     8     1    1
    31     7     3    1
    32    31    22   ar
    33    30    25   ar
    34    17    19    1
    35    18    20    1
@<TRIPOS>MOLECULE
*****
 31 35 0 0 0
SMALL
GASTEIGER

@<TRIPOS>ATOM
      1 N         143.2748  142.7641  169.8572 N.pl3   1  UNL1       -0.2781
      2 C         142.0359  142.1756  170.4647 C.3     1  UNL1        0.0950
      3 C         141.3034  141.4278  169.3904 C.3     1  UNL1        0.0388
      4 C         140.0849  140.6018  169.1020 C.3     1  UNL1        0.0741
      5 N         140.1179  140.2177  167.6523 N.3     1  UNL1       -0.2688
      6 C         141.3567  140.8062  167.0450 C.3     1  UNL1        0.0741
      7 C         142.0894  141.5541  168.1191 C.3     1  UNL1        0.0388
      8 C         143.3078  142.3799  168.4076 C.3     1  UNL1        0.0950
      9 C         146.3521  145.2463  172.0064 C.ar    1  UNL1        0.0937
     10 C         144.8916  145.4825  172.2543 C.ar    1  UNL1        0.1079
     11 N         143.8659  144.6551  171.5379 N.ar    1  UNL1       -0.2119
     12 C         144.3006  143.5915  170.5736 C.ar    1  UNL1        0.2202
     13 N         145.7610  143.3554  170.3257 N.ar    1  UNL1       -0.2119
     14 C         146.7867  144.1828  171.0421 C.ar    1  UNL1        0.1079
     15 O         147.0827  147.5044  173.0634 O.2     1  UNL1       -0.2680
     16 C         147.3778  146.0737  172.7228 C.2     1  UNL1        0.2708
     17 N         148.6988  145.4704  173.0986 N.am    1  UNL1       -0.1934
     18 O         149.7245  146.2978  173.8150 O.3     1  UNL1       -0.2949
     19 H         148.8925  144.5314  172.8751 H       1  UNL1        0.1825
     20 H         149.3768  147.1921  173.9571 H       1  UNL1        0.2414
     21 C         139.0921  139.3903  166.9359 C.3     1  UNL1        0.0991
     22 C         138.8020  139.6453  165.4865 C.ar    1  UNL1       -0.0061
     23 C         138.0359  140.8689  165.0790 C.ar    1  UNL1       -0.0029
     24 C         137.7457  141.1240  163.6297 C.ar    1  UNL1       -0.0003
     25 C         138.2216  140.1555  162.5877 C.ar    1  UNL1       -0.0000
     26 C         137.9314  140.4106  161.1383 C.ar    1  UNL1       -0.0000
     27 C         138.4072  139.4421  160.0965 C.ar    1  UNL1       -0.0000
     28 C         139.1733  138.2185  160.5039 C.ar    1  UNL1       -0.0000
     29 C         139.4635  137.9634  161.9533 C.ar    1  UNL1       -0.0000
     30 C         138.9876  138.9319  162.9952 C.ar    1  UNL1       -0.0003
     31 C         139.2778  138.6768  164.4446 C.ar    1  UNL1       -0.0029
@<TRIPOS>BOND
     1    15    16    2
     2    16    17   am
     3    17    18    1
     4    16     9    1
     5     9    10   ar
     6    10    11   ar
     7    11    12   ar
     8    12     1    1
     9     1     2    1
    10     3     2    1
    11     3     4    1
    12     4     5    1
    13     5    21    1
    14    21    22    1
    15    22    23   ar
    16    23    24   ar
    17    24    25   ar
    18    25    26   ar
    19    26    27   ar
    20    27    28   ar
    21    28    29   ar
    22    29    30   ar
    23    30    31   ar
    24     5     6    1
    25     7     6    1
    26     7     8    1
    27    12    13   ar
    28    13    14   ar
    29    14     9   ar
    30     8     1    1
    31     7     3    1
    32    31    22   ar
    33    30    25   ar
    34    17    19    1
    35    18    20    1
@<TRIPOS>MOLECULE
*****
 31 35 0 0 0
SMALL
GASTEIGER

@<TRIPOS>ATOM
      1 N         141.2589  142.7237  164.0155 N.pl3   1  UNL1       -0.2781
      2 C         140.4035  143.8799  163.5892 C.3     1  UNL1        0.0950
      3 C         140.8075  144.2669  162.1975 C.3     1  UNL1        0.0388
      4 C         140.5285  145.2207  161.0739 C.3     1  UNL1        0.0741
      5 N         141.4611  144.8933  159.9455 N.3     1  UNL1       -0.2688
      6 C         142.3165  143.7371  160.3718 C.3     1  UNL1        0.0741
      7 C         141.9125  143.3500  161.7636 C.3     1  UNL1        0.0388
      8 C         142.1915  142.3963  162.8871 C.3     1  UNL1        0.0950
      9 C         141.0618  140.6090  167.9827 C.ar    1  UNL1        0.0937
     10 C         139.8458  140.6752  167.1068 C.ar    1  UNL1        0.1079
     11 N         139.9115  141.3801  165.7844 N.ar    1  UNL1       -0.2119
     12 C         141.1932  142.0188  165.3379 C.ar    1  UNL1        0.2202
     13 N         142.4091  141.9526  166.2137 N.ar    1  UNL1       -0.2119
     14 C         142.3435  141.2477  167.5361 C.ar    1  UNL1        0.1079
     15 O         142.1948  139.1645  169.8211 O.2     1  UNL1       -0.2680
     16 C         140.9961  139.9040  169.3051 C.2     1  UNL1        0.2708
     17 N         139.7317  139.9387  170.1115 N.am    1  UNL1       -0.1934
     18 O         139.6660  139.2337  171.4339 O.3     1  UNL1       -0.2949
     19 H         138.9450  140.4241  169.7728 H       1  UNL1        0.1825
     20 H         140.5189  138.8093  171.6167 H       1  UNL1        0.2414
     21 C         141.5268  145.5982  158.6231 C.3     1  UNL1        0.0991
     22 C         140.4624  145.3610  157.5931 C.ar    1  UNL1       -0.0061
     23 C         140.0673  146.4631  156.6554 C.ar    1  UNL1       -0.0029
     24 C         139.0030  146.2259  155.6254 C.ar    1  UNL1       -0.0003
     25 C         138.3338  144.8866  155.5330 C.ar    1  UNL1       -0.0000
     26 C         137.2694  144.6495  154.5030 C.ar    1  UNL1       -0.0000
     27 C         136.6003  143.3102  154.4107 C.ar    1  UNL1       -0.0000
     28 C         136.9954  142.2081  155.3484 C.ar    1  UNL1       -0.0000
     29 C         138.0597  142.4453  156.3784 C.ar    1  UNL1       -0.0000
     30 C         138.7289  143.7845  156.4707 C.ar    1  UNL1       -0.0003
     31 C         139.7933  144.0217  157.5007 C.ar    1  UNL1       -0.0029
@<TRIPOS>BOND
     1    15    16    2
     2    16    17   am
     3    17    18    1
     4    16     9    1
     5     9    10   ar
     6    10    11   ar
     7    11    12   ar
     8    12     1    1
     9     1     2    1
    10     3     2    1
    11     3     4    1
    12     4     5    1
    13     5    21    1
    14    21    22    1
    15    22    23   ar
    16    23    24   ar
    17    24    25   ar
    18    25    26   ar
    19    26    27   ar
    20    27    28   ar
    21    28    29   ar
    22    29    30   ar
    23    30    31   ar
    24     5     6    1
    25     7     6    1
    26     7     8    1
    27    12    13   ar
    28    13    14   ar
    29    14     9   ar
    30     8     1    1
    31     7     3    1
    32    31    22   ar
    33    30    25   ar
    34    17    19    1
    35    18    20    1
@<TRIPOS>MOLECULE
*****
 31 35 0 0 0
SMALL
GASTEIGER

@<TRIPOS>ATOM
      1 N         141.8187  143.2075  160.3003 N.pl3   1  UNL1       -0.2781
      2 C         143.2012  143.0318  160.8551 C.3     1  UNL1        0.0950
      3 C         143.1136  142.1084  162.0339 C.3     1  UNL1        0.0388
      4 C         143.9140  141.4291  163.1054 C.3     1  UNL1        0.0741
      5 N         142.9720  140.6142  163.9413 N.3     1  UNL1       -0.2688
      6 C         141.5895  140.7900  163.3865 C.3     1  UNL1        0.0741
      7 C         141.6770  141.7134  162.2077 C.3     1  UNL1        0.0388
      8 C         140.8767  142.3927  161.1363 C.3     1  UNL1        0.0950
      9 C         140.6944  145.7353  156.7512 C.ar    1  UNL1        0.0937
     10 C         141.9641  146.0153  157.4994 C.ar    1  UNL1        0.1079
     11 N         142.3388  145.1727  158.6825 N.ar    1  UNL1       -0.2119
     12 C         141.4439  144.0501  159.1173 C.ar    1  UNL1        0.2202
     13 N         140.1744  143.7701  158.3691 N.ar    1  UNL1       -0.2119
     14 C         139.7996  144.6127  157.1860 C.ar    1  UNL1        0.1079
     15 O         140.4782  146.0337  154.1794 O.2     1  UNL1       -0.2680
     16 C         140.3197  146.5779  155.5682 C.2     1  UNL1        0.2708
     17 N         139.7865  147.9648  155.7739 N.am    1  UNL1       -0.1934
     18 O         139.4117  148.8074  154.5909 O.3     1  UNL1       -0.2949
     19 H         139.6825  148.3220  156.6854 H       1  UNL1        0.1825
     20 H         139.5744  148.3093  153.7746 H       1  UNL1        0.2414
     21 C         143.3467  139.7716  165.1244 C.3     1  UNL1        0.0991
     22 C         142.7818  140.0858  166.4780 C.ar    1  UNL1       -0.0061
     23 C         142.9225  139.0972  167.5973 C.ar    1  UNL1       -0.0029
     24 C         142.3577  139.4113  168.9509 C.ar    1  UNL1       -0.0003
     25 C         141.6520  140.7141  169.1852 C.ar    1  UNL1       -0.0000
     26 C         141.0872  141.0282  170.5388 C.ar    1  UNL1       -0.0000
     27 C         140.3816  142.3309  170.7731 C.ar    1  UNL1       -0.0000
     28 C         140.2409  143.3196  169.6539 C.ar    1  UNL1       -0.0000
     29 C         140.8058  143.0055  168.3003 C.ar    1  UNL1       -0.0000
     30 C         141.5113  141.7027  168.0660 C.ar    1  UNL1       -0.0003
     31 C         142.0763  141.3886  166.7123 C.ar    1  UNL1       -0.0029
@<TRIPOS>BOND
     1    15    16    2
     2    16    17   am
     3    17    18    1
     4    16     9    1
     5     9    10   ar
     6    10    11   ar
     7    11    12   ar
     8    12     1    1
     9     1     2    1
    10     3     2    1
    11     3     4    1
    12     4     5    1
    13     5    21    1
    14    21    22    1
    15    22    23   ar
    16    23    24   ar
    17    24    25   ar
    18    25    26   ar
    19    26    27   ar
    20    27    28   ar
    21    28    29   ar
    22    29    30   ar
    23    30    31   ar
    24     5     6    1
    25     7     6    1
    26     7     8    1
    27    12    13   ar
    28    13    14   ar
    29    14     9   ar
    30     8     1    1
    31     7     3    1
    32    31    22   ar
    33    30    25   ar
    34    17    19    1
    35    18    20    1
