@<TRIPOS>MOLECULE
*****
 29 33 0 0 0
SMALL
GASTEIGER

@<TRIPOS>ATOM
      1 C         140.8630  139.0466  161.5217 C.2     1  UNL1        0.0079
      2 C         140.1513  138.1615  162.5015 C.2     1  UNL1        0.0937
      3 C         139.9371  138.6242  163.9122 C.2     1  UNL1        0.3699
      4 N         140.9334  139.5390  164.5608 N.2     1  UNL1       -0.0293
      5 C         140.7192  140.0017  165.9715 C.2     1  UNL1        0.2254
      6 S         141.5227  140.8978  166.8668 S.3     1  UNL1       -0.0648
      7 C         140.8088  140.9996  168.1821 C.3     1  UNL1        0.0740
      8 C         139.5642  140.1665  168.0998 C.2     1  UNL1       -0.0233
      9 C         139.5088  139.5497  166.7335 C.2     1  UNL1        0.1239
     10 C         138.5126  138.6350  166.0849 C.2     1  UNL1        0.3791
     11 O         137.3022  138.1830  166.8469 O.2     1  UNL1       -0.2376
     12 N         138.7268  138.1723  164.6742 N.am    1  UNL1        0.0364
     13 C         138.8503  140.2682  169.4151 C.3     1  UNL1        0.0233
     14 C         139.6538  141.1643  170.3104 C.3     1  UNL1        0.0056
     15 C         140.8642  141.6163  169.5484 C.3     1  UNL1        0.0157
     16 C         140.1593  138.1636  157.7172 C.ar    1  UNL1        0.1547
     17 C         139.9451  138.6263  159.1278 C.ar    1  UNL1        0.0384
     18 C         141.0772  138.5839  160.1111 C.ar    1  UNL1        0.0034
     19 C         142.4232  138.0788  159.6837 C.ar    1  UNL1        0.0017
     20 C         142.6374  137.6160  158.2729 C.ar    1  UNL1        0.0206
     21 C         141.5055  137.6585  157.2898 C.ar    1  UNL1        0.0994
     22 N         141.7196  137.1957  155.8790 N.ar    1  UNL1       -0.2839
     23 C         142.1095  138.0605  154.7170 C.ar    1  UNL1        0.1826
     24 N         142.2123  137.1861  153.5025 N.ar    1  UNL1       -0.2280
     25 C         141.8861  135.7811  153.9140 C.ar    1  UNL1        0.0786
     26 C         141.8676  134.5808  153.0145 C.3     1  UNL1        0.0538
     27 C         141.5816  135.7870  155.3827 C.ar    1  UNL1        0.0963
     28 C         138.7965  139.4371  155.9086 C.3     1  UNL1        0.2525
     29 O         139.0273  138.2060  156.7339 O.3     1  UNL1       -0.4700
@<TRIPOS>BOND
     1    28    29    1
     2    29    16    1
     3    16    17   ar
     4    17    18   ar
     5    18     1    1
     6     1     2    2
     7     2     3    1
     8     3     4    1
     9     4     5    2
    10     5     6    1
    11     6     7    1
    12     7     8    1
    13     8     9    2
    14     9    10    1
    15    10    11    2
    16    10    12    1
    17     8    13    1
    18    13    14    1
    19    14    15    1
    20    18    19   ar
    21    19    20   ar
    22    20    21   ar
    23    21    22    1
    24    22    23   ar
    25    23    24   ar
    26    24    25   ar
    27    25    26    1
    28    25    27   ar
    29    21    16   ar
    30    27    22   ar
    31    12     3    2
    32     9     5    1
    33    15     7    1
@<TRIPOS>MOLECULE
*****
 29 33 0 0 0
SMALL
GASTEIGER

@<TRIPOS>ATOM
      1 C         141.4842  138.0123  162.1473 C.2     1  UNL1        0.0079
      2 C         141.9703  138.7811  160.9546 C.2     1  UNL1        0.0937
      3 C         141.7219  138.2559  159.5716 C.2     1  UNL1        0.3699
      4 N         142.7562  137.4057  158.8952 N.2     1  UNL1       -0.0293
      5 C         142.5078  136.8806  157.5123 C.2     1  UNL1        0.2254
      6 S         143.3357  136.0249  156.5998 S.3     1  UNL1       -0.0648
      7 C         142.5647  135.8212  155.3294 C.3     1  UNL1        0.0740
      8 C         141.2603  136.5508  155.4566 C.2     1  UNL1       -0.0233
      9 C         141.2251  137.2056  156.8057 C.2     1  UNL1        0.1239
     10 C         140.1909  138.0557  157.4821 C.2     1  UNL1        0.3791
     11 O         138.9082  138.3808  156.7756 O.2     1  UNL1       -0.2376
     12 N         140.4393  138.5809  158.8651 N.am    1  UNL1        0.0364
     13 C         140.4893  136.3471  154.1862 C.3     1  UNL1        0.0233
     14 C         141.3172  135.4915  153.2738 C.3     1  UNL1        0.0056
     15 C         142.5998  135.1664  153.9803 C.3     1  UNL1        0.0157
     16 C         140.8261  139.3326  165.8315 C.ar    1  UNL1        0.1547
     17 C         140.5777  138.8074  164.4486 C.ar    1  UNL1        0.0384
     18 C         141.7326  138.5374  163.5302 C.ar    1  UNL1        0.0034
     19 C         143.1358  138.7924  163.9948 C.ar    1  UNL1        0.0017
     20 C         143.3842  139.3176  165.3778 C.ar    1  UNL1        0.0206
     21 C         142.2293  139.5876  166.2960 C.ar    1  UNL1        0.0994
     22 N         142.4778  140.1128  167.6791 N.ar    1  UNL1       -0.2839
     23 C         142.6001  139.2886  168.9264 C.ar    1  UNL1        0.1826
     24 N         142.8454  140.2208  170.0757 N.ar    1  UNL1       -0.2280
     25 C         142.8747  141.6210  169.5386 C.ar    1  UNL1        0.0786
     26 C         143.0929  142.8689  170.3418 C.3     1  UNL1        0.0538
     27 C         142.6475  141.5543  168.0575 C.ar    1  UNL1        0.0963
     28 C         138.2952  139.1313  166.3832 C.3     1  UNL1        0.2525
     29 O         139.6712  139.6027  166.7498 O.3     1  UNL1       -0.4700
@<TRIPOS>BOND
     1    28    29    1
     2    29    16    1
     3    16    17   ar
     4    17    18   ar
     5    18     1    1
     6     1     2    2
     7     2     3    1
     8     3     4    1
     9     4     5    2
    10     5     6    1
    11     6     7    1
    12     7     8    1
    13     8     9    2
    14     9    10    1
    15    10    11    2
    16    10    12    1
    17     8    13    1
    18    13    14    1
    19    14    15    1
    20    18    19   ar
    21    19    20   ar
    22    20    21   ar
    23    21    22    1
    24    22    23   ar
    25    23    24   ar
    26    24    25   ar
    27    25    26    1
    28    25    27   ar
    29    21    16   ar
    30    27    22   ar
    31    12     3    2
    32     9     5    1
    33    15     7    1
@<TRIPOS>MOLECULE
*****
 29 33 0 0 0
SMALL
GASTEIGER

@<TRIPOS>ATOM
      1 C         142.6322  138.0731  158.3383 C.2     1  UNL1        0.0079
      2 C         142.9642  137.7807  159.7715 C.2     1  UNL1        0.0937
      3 C         143.2316  138.9078  160.7244 C.2     1  UNL1        0.3699
      4 N         142.7198  140.2846  160.4201 N.2     1  UNL1       -0.0293
      5 C         142.9873  141.4117  161.3730 C.2     1  UNL1        0.2254
      6 S         142.6123  142.8638  161.3407 S.3     1  UNL1       -0.0648
      7 C         143.1598  143.5116  162.5779 C.3     1  UNL1        0.0740
      8 C         143.8731  142.4599  163.3749 C.2     1  UNL1       -0.0233
      9 C         143.7665  141.1621  162.6302 C.2     1  UNL1        0.1239
     10 C         144.2782  139.7854  162.9345 C.2     1  UNL1        0.3791
     11 O         145.0575  139.5357  164.1917 O.2     1  UNL1       -0.2376
     12 N         144.0108  138.6583  161.9816 N.am    1  UNL1        0.0364
     13 C         144.4206  143.1076  164.6121 C.3     1  UNL1        0.0233
     14 C         144.0457  144.5596  164.5797 C.3     1  UNL1        0.0056
     15 C         143.2665  144.8093  163.3225 C.3     1  UNL1        0.0157
     16 C         143.0113  134.6299  156.4018 C.ar    1  UNL1        0.1547
     17 C         143.2787  135.7570  157.3547 C.ar    1  UNL1        0.0384
     18 C         142.3647  136.9460  157.3853 C.ar    1  UNL1        0.0034
     19 C         141.1834  137.0079  156.4632 C.ar    1  UNL1        0.0017
     20 C         140.9159  135.8807  155.5102 C.ar    1  UNL1        0.0206
     21 C         141.8299  134.6918  155.4796 C.ar    1  UNL1        0.0994
     22 N         141.5624  133.5646  154.5266 N.ar    1  UNL1       -0.2839
     23 C         141.8364  133.5730  153.0519 C.ar    1  UNL1        0.1826
     24 N         141.4173  132.2447  152.4949 N.ar    1  UNL1       -0.2280
     25 C         140.8844  131.4155  153.6255 C.ar    1  UNL1        0.0786
     26 C         140.3547  130.0162  153.5191 C.3     1  UNL1        0.0538
     27 C         140.9740  132.2312  154.8811 C.ar    1  UNL1        0.0963
     28 C         144.4658  132.8772  157.6517 C.3     1  UNL1        0.2525
     29 O         143.9252  133.4409  156.3711 O.3     1  UNL1       -0.4700
@<TRIPOS>BOND
     1    28    29    1
     2    29    16    1
     3    16    17   ar
     4    17    18   ar
     5    18     1    1
     6     1     2    2
     7     2     3    1
     8     3     4    1
     9     4     5    2
    10     5     6    1
    11     6     7    1
    12     7     8    1
    13     8     9    2
    14     9    10    1
    15    10    11    2
    16    10    12    1
    17     8    13    1
    18    13    14    1
    19    14    15    1
    20    18    19   ar
    21    19    20   ar
    22    20    21   ar
    23    21    22    1
    24    22    23   ar
    25    23    24   ar
    26    24    25   ar
    27    25    26    1
    28    25    27   ar
    29    21    16   ar
    30    27    22   ar
    31    12     3    2
    32     9     5    1
    33    15     7    1
@<TRIPOS>MOLECULE
*****
 29 33 0 0 0
SMALL
GASTEIGER

@<TRIPOS>ATOM
      1 C         141.3730  138.5916  161.7401 C.2     1  UNL1        0.0079
      2 C         141.2482  139.3474  160.4504 C.2     1  UNL1        0.0937
      3 C         141.1652  138.6038  159.1504 C.2     1  UNL1        0.3699
      4 N         142.3169  137.7569  158.6960 N.2     1  UNL1       -0.0293
      5 C         142.2339  137.0132  157.3959 C.2     1  UNL1        0.2254
      6 S         143.2022  136.1079  156.6938 S.3     1  UNL1       -0.0648
      7 C         142.5660  135.6517  155.4143 C.3     1  UNL1        0.0740
      8 C         141.2045  136.2750  155.3256 C.2     1  UNL1       -0.0233
      9 C         140.9993  137.1164  156.5503 C.2     1  UNL1        0.1239
     10 C         139.8477  137.9633  157.0047 C.2     1  UNL1        0.3791
     11 O         138.6130  138.0666  156.1591 O.2     1  UNL1       -0.2376
     12 N         139.9307  138.7070  158.3047 N.am    1  UNL1        0.0364
     13 C         140.5684  135.8188  154.0461 C.3     1  UNL1        0.0233
     14 C         141.5367  134.9135  153.3441 C.3     1  UNL1        0.0056
     15 C         142.7713  134.8102  154.1897 C.3     1  UNL1        0.0157
     16 C         141.6733  141.5729  164.3423 C.ar    1  UNL1        0.1547
     17 C         141.5903  140.8293  163.0422 C.ar    1  UNL1        0.0384
     18 C         141.4560  139.3353  163.0401 C.ar    1  UNL1        0.0034
     19 C         141.4048  138.5850  164.3379 C.ar    1  UNL1        0.0017
     20 C         141.4878  139.3287  165.6380 C.ar    1  UNL1        0.0206
     21 C         141.6220  140.8226  165.6401 C.ar    1  UNL1        0.0994
     22 N         141.7051  141.5663  166.9402 N.ar    1  UNL1       -0.2839
     23 C         142.9303  141.7191  167.7918 C.ar    1  UNL1        0.1826
     24 N         142.5599  142.5350  168.9948 N.ar    1  UNL1       -0.2280
     25 C         141.1057  142.8864  168.8866 C.ar    1  UNL1        0.0786
     26 C         140.3180  143.6945  169.8748 C.3     1  UNL1        0.0538
     27 C         140.5773  142.2877  167.6168 C.ar    1  UNL1        0.0963
     28 C         143.1685  143.6976  164.3554 C.3     1  UNL1        0.2525
     29 O         141.8075  143.0669  164.3444 O.3     1  UNL1       -0.4700
@<TRIPOS>BOND
     1    28    29    1
     2    29    16    1
     3    16    17   ar
     4    17    18   ar
     5    18     1    1
     6     1     2    2
     7     2     3    1
     8     3     4    1
     9     4     5    2
    10     5     6    1
    11     6     7    1
    12     7     8    1
    13     8     9    2
    14     9    10    1
    15    10    11    2
    16    10    12    1
    17     8    13    1
    18    13    14    1
    19    14    15    1
    20    18    19   ar
    21    19    20   ar
    22    20    21   ar
    23    21    22    1
    24    22    23   ar
    25    23    24   ar
    26    24    25   ar
    27    25    26    1
    28    25    27   ar
    29    21    16   ar
    30    27    22   ar
    31    12     3    2
    32     9     5    1
    33    15     7    1
@<TRIPOS>MOLECULE
*****
 29 33 0 0 0
SMALL
GASTEIGER

@<TRIPOS>ATOM
      1 C         143.7013  141.0435  162.1088 C.2     1  UNL1        0.0079
      2 C         142.6597  140.0893  162.6133 C.2     1  UNL1        0.0937
      3 C         142.3770  139.9963  164.0834 C.2     1  UNL1        0.3699
      4 N         141.2269  140.7559  164.6755 N.2     1  UNL1       -0.0293
      5 C         140.9442  140.6628  166.1457 C.2     1  UNL1        0.2254
      6 S         139.8894  141.2923  167.0067 S.3     1  UNL1       -0.0648
      7 C         140.1048  140.8287  168.4170 C.3     1  UNL1        0.0740
      8 C         141.2927  139.9128  168.4275 C.2     1  UNL1       -0.0233
      9 C         141.8114  139.8103  167.0238 C.2     1  UNL1        0.1239
     10 C         142.9614  139.0508  166.4317 C.2     1  UNL1        0.3791
     11 O         143.8287  138.1982  167.3098 O.2     1  UNL1       -0.2376
     12 N         143.2442  139.1438  164.9616 N.am    1  UNL1        0.0364
     13 C         141.5081  139.4493  169.8377 C.3     1  UNL1        0.0233
     14 C         140.4534  140.0787  170.6987 C.3     1  UNL1        0.0056
     15 C         139.5861  140.9313  169.8207 C.3     1  UNL1        0.0157
     16 C         143.9856  140.0578  158.2751 C.ar    1  UNL1        0.1547
     17 C         143.7029  139.9648  159.7452 C.ar    1  UNL1        0.0384
     18 C         143.9841  141.1365  160.6386 C.ar    1  UNL1        0.0034
     19 C         144.5479  142.4011  160.0619 C.ar    1  UNL1        0.0017
     20 C         144.8306  142.4942  158.5916 C.ar    1  UNL1        0.0206
     21 C         144.5495  141.3225  157.6983 C.ar    1  UNL1        0.0994
     22 N         144.8322  141.4155  156.2281 N.ar    1  UNL1       -0.2839
     23 C         143.8225  141.6810  155.1511 C.ar    1  UNL1        0.1826
     24 N         144.5406  141.6889  153.8342 N.ar    1  UNL1       -0.2280
     25 C         145.9941  141.4283  154.0973 C.ar    1  UNL1        0.0786
     26 C         147.0772  141.3504  153.0625 C.3     1  UNL1        0.0538
     27 C         146.1744  141.2593  155.5768 C.ar    1  UNL1        0.0963
     28 C         142.3519  138.2380  157.3981 C.3     1  UNL1        0.2525
     29 O         143.7045  138.8862  157.3817 O.3     1  UNL1       -0.4700
@<TRIPOS>BOND
     1    28    29    1
     2    29    16    1
     3    16    17   ar
     4    17    18   ar
     5    18     1    1
     6     1     2    2
     7     2     3    1
     8     3     4    1
     9     4     5    2
    10     5     6    1
    11     6     7    1
    12     7     8    1
    13     8     9    2
    14     9    10    1
    15    10    11    2
    16    10    12    1
    17     8    13    1
    18    13    14    1
    19    14    15    1
    20    18    19   ar
    21    19    20   ar
    22    20    21   ar
    23    21    22    1
    24    22    23   ar
    25    23    24   ar
    26    24    25   ar
    27    25    26    1
    28    25    27   ar
    29    21    16   ar
    30    27    22   ar
    31    12     3    2
    32     9     5    1
    33    15     7    1
@<TRIPOS>MOLECULE
*****
 29 33 0 0 0
SMALL
GASTEIGER

@<TRIPOS>ATOM
      1 C         142.8924  137.0770  159.2165 C.2     1  UNL1        0.0079
      2 C         142.6840  137.2205  157.7380 C.2     1  UNL1        0.0937
      3 C         142.7777  136.0173  156.8472 C.2     1  UNL1        0.3699
      4 N         143.5986  134.8345  157.2682 N.2     1  UNL1       -0.0293
      5 C         143.6923  133.6314  156.3774 C.2     1  UNL1        0.2254
      6 S         144.4192  132.3275  156.5247 S.3     1  UNL1       -0.0648
      7 C         144.1412  131.5013  155.3040 C.3     1  UNL1        0.0740
      8 C         143.2425  132.2945  154.4022 C.2     1  UNL1       -0.0233
      9 C         142.9650  133.6109  155.0655 C.2     1  UNL1        0.1239
     10 C         142.1442  134.7937  154.6446 C.2     1  UNL1        0.3791
     11 O         141.4169  134.7733  153.3329 O.2     1  UNL1       -0.2376
     12 N         142.0505  135.9968  155.5355 N.am    1  UNL1        0.0364
     13 C         142.9645  131.4683  153.1815 C.3     1  UNL1        0.0233
     14 C         143.6914  130.1645  153.3289 C.3     1  UNL1        0.0056
     15 C         144.4186  130.1849  154.6406 C.3     1  UNL1        0.0157
     16 C         143.8185  139.7981  161.9528 C.ar    1  UNL1        0.1547
     17 C         143.9122  138.5950  161.0620 C.ar    1  UNL1        0.0384
     18 C         142.7987  138.2802  160.1074 C.ar    1  UNL1        0.0034
     19 C         141.5918  139.1685  160.0436 C.ar    1  UNL1        0.0017
     20 C         141.4982  140.3717  160.9345 C.ar    1  UNL1        0.0206
     21 C         142.6115  140.6865  161.8891 C.ar    1  UNL1        0.0994
     22 N         142.5179  141.8897  162.7800 N.ar    1  UNL1       -0.2839
     23 C         141.6045  142.0443  163.9597 C.ar    1  UNL1        0.1826
     24 N         141.8433  143.3997  164.5563 N.ar    1  UNL1       -0.2280
     25 C         142.9044  144.0826  163.7453 C.ar    1  UNL1        0.0786
     26 C         143.4523  145.4575  163.9894 C.3     1  UNL1        0.0538
     27 C         143.3213  143.1494  162.6475 C.ar    1  UNL1        0.0963
     28 C         144.8985  139.5681  164.3046 C.3     1  UNL1        0.2525
     29 O         144.9319  140.1130  162.9075 O.3     1  UNL1       -0.4700
@<TRIPOS>BOND
     1    28    29    1
     2    29    16    1
     3    16    17   ar
     4    17    18   ar
     5    18     1    1
     6     1     2    2
     7     2     3    1
     8     3     4    1
     9     4     5    2
    10     5     6    1
    11     6     7    1
    12     7     8    1
    13     8     9    2
    14     9    10    1
    15    10    11    2
    16    10    12    1
    17     8    13    1
    18    13    14    1
    19    14    15    1
    20    18    19   ar
    21    19    20   ar
    22    20    21   ar
    23    21    22    1
    24    22    23   ar
    25    23    24   ar
    26    24    25   ar
    27    25    26    1
    28    25    27   ar
    29    21    16   ar
    30    27    22   ar
    31    12     3    2
    32     9     5    1
    33    15     7    1
@<TRIPOS>MOLECULE
*****
 29 33 0 0 0
SMALL
GASTEIGER

@<TRIPOS>ATOM
      1 C         142.8916  137.9231  157.7930 C.2     1  UNL1        0.0079
      2 C         141.9924  136.9797  157.0504 C.2     1  UNL1        0.0937
      3 C         142.5051  135.6373  156.6202 C.2     1  UNL1        0.3699
      4 N         142.1186  135.0806  155.2819 N.2     1  UNL1       -0.0293
      5 C         142.6312  133.7382  154.8517 C.2     1  UNL1        0.2254
      6 S         142.4227  132.9382  153.6000 S.3     1  UNL1       -0.0648
      7 C         143.1929  131.6580  153.7344 C.3     1  UNL1        0.0740
      8 C         143.8774  131.6668  155.0691 C.2     1  UNL1       -0.0233
      9 C         143.5303  132.9524  155.7596 C.2     1  UNL1        0.1239
     10 C         143.9167  133.5090  157.0978 C.2     1  UNL1        0.3791
     11 O         144.8157  132.7233  158.0058 O.2     1  UNL1       -0.2376
     12 N         143.4040  134.8515  157.5280 N.am    1  UNL1        0.0364
     13 C         144.6475  130.3866  155.2036 C.3     1  UNL1        0.0233
     14 C         144.4390  129.5867  153.9519 C.3     1  UNL1        0.0056
     15 C         143.5400  130.3724  153.0440 C.3     1  UNL1        0.0157
     16 C         142.8301  141.6862  159.0518 C.ar    1  UNL1        0.1547
     17 C         143.3427  140.3438  158.6216 C.ar    1  UNL1        0.0384
     18 C         142.3790  139.2655  158.2232 C.ar    1  UNL1        0.0034
     19 C         140.9029  139.5296  158.2551 C.ar    1  UNL1        0.0017
     20 C         140.3903  140.8721  158.6853 C.ar    1  UNL1        0.0206
     21 C         141.3539  141.9503  159.0837 C.ar    1  UNL1        0.0994
     22 N         140.8413  143.2928  159.5139 N.ar    1  UNL1       -0.2839
     23 C         140.4095  144.4047  158.6043 C.ar    1  UNL1        0.1826
     24 N         139.9718  145.5581  159.4576 N.ar    1  UNL1       -0.2280
     25 C         140.1331  145.1591  160.8945 C.ar    1  UNL1        0.0786
     26 C         139.8132  146.0106  162.0872 C.3     1  UNL1        0.0538
     27 C         140.6704  143.7591  160.9293 C.ar    1  UNL1        0.0963
     28 C         144.3002  142.8343  160.8604 C.3     1  UNL1        0.2525
     29 O         143.7937  142.7645  159.4502 O.3     1  UNL1       -0.4700
@<TRIPOS>BOND
     1    28    29    1
     2    29    16    1
     3    16    17   ar
     4    17    18   ar
     5    18     1    1
     6     1     2    2
     7     2     3    1
     8     3     4    1
     9     4     5    2
    10     5     6    1
    11     6     7    1
    12     7     8    1
    13     8     9    2
    14     9    10    1
    15    10    11    2
    16    10    12    1
    17     8    13    1
    18    13    14    1
    19    14    15    1
    20    18    19   ar
    21    19    20   ar
    22    20    21   ar
    23    21    22    1
    24    22    23   ar
    25    23    24   ar
    26    24    25   ar
    27    25    26    1
    28    25    27   ar
    29    21    16   ar
    30    27    22   ar
    31    12     3    2
    32     9     5    1
    33    15     7    1
@<TRIPOS>MOLECULE
*****
 29 33 0 0 0
SMALL
GASTEIGER

@<TRIPOS>ATOM
      1 C         143.9472  139.6149  161.3771 C.2     1  UNL1        0.0079
      2 C         143.1427  140.2229  160.2667 C.2     1  UNL1        0.0937
      3 C         143.6577  140.1829  158.8585 C.2     1  UNL1        0.3699
      4 N         144.6211  141.2294  158.3823 N.2     1  UNL1       -0.0293
      5 C         145.1361  141.1894  156.9741 C.2     1  UNL1        0.2254
      6 S         146.0866  142.0778  156.2273 S.3     1  UNL1       -0.0648
      7 C         146.2255  141.5404  154.8337 C.3     1  UNL1        0.0740
      8 C         145.3610  140.3200  154.7192 C.2     1  UNL1       -0.0233
      9 C         144.6877  140.1031  156.0419 C.2     1  UNL1        0.1239
     10 C         143.7243  139.0566  156.5182 C.2     1  UNL1        0.3791
     11 O         143.2759  137.9702  155.5862 O.2     1  UNL1       -0.2376
     12 N         143.2093  139.0966  157.9264 N.am    1  UNL1        0.0364
     13 C         145.4999  139.7826  153.3257 C.3     1  UNL1        0.0233
     14 C         146.4503  140.6710  152.5790 C.3     1  UNL1        0.0056
     15 C         146.8987  141.7574  153.5110 C.3     1  UNL1        0.0157
     16 C         143.2280  140.8699  165.0726 C.ar    1  UNL1        0.1547
     17 C         143.7430  140.8299  163.6644 C.ar    1  UNL1        0.0384
     18 C         143.4323  139.6549  162.7853 C.ar    1  UNL1        0.0034
     19 C         142.6066  138.5200  163.3144 C.ar    1  UNL1        0.0017
     20 C         142.0916  138.5600  164.7228 C.ar    1  UNL1        0.0206
     21 C         142.4023  139.7349  165.6018 C.ar    1  UNL1        0.0994
     22 N         141.8873  139.7750  167.0101 N.ar    1  UNL1       -0.2839
     23 C         142.6552  139.3937  168.2409 C.ar    1  UNL1        0.1826
     24 N         141.7565  139.5864  169.4263 N.ar    1  UNL1       -0.2280
     25 C         140.4331  140.0867  168.9280 C.ar    1  UNL1        0.0786
     26 C         139.2386  140.4132  169.7745 C.3     1  UNL1        0.0538
     27 C         140.5139  140.2033  167.4348 C.ar    1  UNL1        0.0963
     28 C         144.2374  143.2438  165.3821 C.3     1  UNL1        0.2525
     29 O         143.5388  142.0449  165.9517 O.3     1  UNL1       -0.4700
@<TRIPOS>BOND
     1    28    29    1
     2    29    16    1
     3    16    17   ar
     4    17    18   ar
     5    18     1    1
     6     1     2    2
     7     2     3    1
     8     3     4    1
     9     4     5    2
    10     5     6    1
    11     6     7    1
    12     7     8    1
    13     8     9    2
    14     9    10    1
    15    10    11    2
    16    10    12    1
    17     8    13    1
    18    13    14    1
    19    14    15    1
    20    18    19   ar
    21    19    20   ar
    22    20    21   ar
    23    21    22    1
    24    22    23   ar
    25    23    24   ar
    26    24    25   ar
    27    25    26    1
    28    25    27   ar
    29    21    16   ar
    30    27    22   ar
    31    12     3    2
    32     9     5    1
    33    15     7    1
@<TRIPOS>MOLECULE
*****
 29 33 0 0 0
SMALL
GASTEIGER

@<TRIPOS>ATOM
      1 C         141.2365  137.6846  157.2230 C.2     1  UNL1        0.0079
      2 C         142.5517  136.9876  157.4084 C.2     1  UNL1        0.0937
      3 C         142.8218  135.6942  156.6983 C.2     1  UNL1        0.3699
      4 N         143.5742  134.5992  157.3947 N.2     1  UNL1       -0.0293
      5 C         143.8442  133.3059  156.6845 C.2     1  UNL1        0.2254
      6 S         144.5547  132.0556  157.1115 S.3     1  UNL1       -0.0648
      7 C         144.5115  131.0847  155.9690 C.3     1  UNL1        0.0740
      8 C         143.7743  131.7347  154.8359 C.2     1  UNL1       -0.0233
      9 C         143.3619  133.1075  155.2781 C.2     1  UNL1        0.1239
     10 C         142.6095  134.2025  154.5818 C.2     1  UNL1        0.3791
     11 O         142.1272  134.0041  153.1753 O.2     1  UNL1       -0.2376
     12 N         142.3395  135.4958  155.2919 N.am    1  UNL1        0.0364
     13 C         143.7310  130.7638  153.6933 C.3     1  UNL1        0.0233
     14 C         144.4415  129.5136  154.1204 C.3     1  UNL1        0.0056
     15 C         144.9239  129.7119  155.5268 C.3     1  UNL1        0.0157
     16 C         139.3398  140.9054  158.5565 C.ar    1  UNL1        0.1547
     17 C         139.6098  139.6121  157.8464 C.ar    1  UNL1        0.0384
     18 C         140.9664  138.9779  157.9332 C.ar    1  UNL1        0.0034
     19 C         142.0529  139.6370  158.7300 C.ar    1  UNL1        0.0017
     20 C         141.7828  140.9305  159.4402 C.ar    1  UNL1        0.0206
     21 C         140.4263  141.5646  159.3534 C.ar    1  UNL1        0.0994
     22 N         140.1562  142.8580  160.0636 N.ar    1  UNL1       -0.2839
     23 C         140.1998  144.2263  159.4505 C.ar    1  UNL1        0.1826
     24 N         139.8656  145.2241  160.5195 N.ar    1  UNL1       -0.2280
     25 C         139.6155  144.4724  161.7933 C.ar    1  UNL1        0.0786
     26 C         139.2500  145.0769  163.1165 C.3     1  UNL1        0.0538
     27 C         139.7951  143.0101  161.5115 C.ar    1  UNL1        0.0963
     28 C         137.6479  142.4386  157.3167 C.3     1  UNL1        0.2525
     29 O         137.9832  141.5396  158.4697 O.3     1  UNL1       -0.4700
@<TRIPOS>BOND
     1    28    29    1
     2    29    16    1
     3    16    17   ar
     4    17    18   ar
     5    18     1    1
     6     1     2    2
     7     2     3    1
     8     3     4    1
     9     4     5    2
    10     5     6    1
    11     6     7    1
    12     7     8    1
    13     8     9    2
    14     9    10    1
    15    10    11    2
    16    10    12    1
    17     8    13    1
    18    13    14    1
    19    14    15    1
    20    18    19   ar
    21    19    20   ar
    22    20    21   ar
    23    21    22    1
    24    22    23   ar
    25    23    24   ar
    26    24    25   ar
    27    25    26    1
    28    25    27   ar
    29    21    16   ar
    30    27    22   ar
    31    12     3    2
    32     9     5    1
    33    15     7    1
