@<TRIPOS>MOLECULE
*****
 32 36 0 0 0
SMALL
GASTEIGER

@<TRIPOS>ATOM
      1 N         139.8437  138.2530  162.1063 N.3     1  UNL1       -0.2695
      2 C         139.8824  138.0201  163.5876 C.3     1  UNL1        0.0939
      3 C         141.1423  138.2881  164.3563 C.3     1  UNL1        0.1107
      4 N         142.3635  138.7889  163.6437 N.am    1  UNL1       -0.2764
      5 C         143.6233  139.0569  164.4124 C.2     1  UNL1        0.2302
      6 O         144.8446  139.5578  163.6998 O.2     1  UNL1       -0.2745
      7 C         142.3248  139.0218  162.1624 C.3     1  UNL1        0.1107
      8 C         141.0650  138.7538  161.3937 C.3     1  UNL1        0.0939
      9 C         138.5839  137.9850  161.3376 C.3     1  UNL1        0.0769
     10 C         137.4912  139.0122  161.3068 C.3     1  UNL1        0.0437
     11 O         139.1705  145.8937  161.9827 O.2     1  UNL1       -0.2449
     12 C         138.6593  144.6971  162.7289 C.2     1  UNL1        0.3413
     13 O         138.2806  144.6584  164.1798 O.3     1  UNL1       -0.4404
     14 C         137.8242  143.2665  164.5027 C.3     1  UNL1        0.2356
     15 C         137.9209  142.4449  163.2514 C.ar    1  UNL1        0.0272
     16 C         137.6056  141.0060  162.9686 C.ar    1  UNL1       -0.0047
     17 C         137.8065  140.4512  161.5896 C.ar    1  UNL1       -0.0210
     18 C         138.3226  141.3354  160.4933 C.ar    1  UNL1       -0.0040
     19 C         138.6378  142.7744  160.7760 C.ar    1  UNL1        0.0059
     20 C         138.4370  143.3291  162.1551 C.ar    1  UNL1        0.0751
     21 C         143.6620  138.8241  165.8937 C.3     1  UNL1        0.1131
     22 C         142.8937  139.7248  166.8148 C.ar    1  UNL1        0.0062
     23 C         142.7177  141.1744  166.4718 C.ar    1  UNL1        0.0009
     24 C         141.9495  142.0752  167.3928 C.ar    1  UNL1        0.0386
     25 C         141.3571  141.5263  168.6569 C.ar    1  UNL1        0.1672
     26 N         141.5331  140.0767  168.9999 N.ar    1  UNL1       -0.2252
     27 C         142.3014  139.1759  168.0789 C.ar    1  UNL1        0.0968
     28 N         140.5888  142.4271  169.5780 N.ar    1  UNL1       -0.1708
     29 C         140.5818  143.9266  169.5416 C.ar    1  UNL1        0.2272
     30 N         139.6813  144.4127  170.6383 N.ar    1  UNL1       -0.1044
     31 N         139.1317  143.2135  171.3526 N.ar    1  UNL1       -0.0222
     32 N         139.6926  141.9864  170.6972 N.ar    1  UNL1       -0.0371
@<TRIPOS>BOND
     1    11    12    2
     2    12    13    1
     3    13    14    1
     4    14    15    1
     5    15    16   ar
     6    16    17   ar
     7    17    10    1
     8    10     9    1
     9     9     1    1
    10     1     2    1
    11     2     3    1
    12     3     4    1
    13     4     5   am
    14     5     6    2
    15     5    21    1
    16    21    22    1
    17    22    23   ar
    18    23    24   ar
    19    24    25   ar
    20    25    28    1
    21    28    29   ar
    22    29    30   ar
    23    30    31   ar
    24    31    32   ar
    25    25    26   ar
    26    26    27   ar
    27     4     7    1
    28     7     8    1
    29    17    18   ar
    30    18    19   ar
    31    19    20   ar
    32    20    12    1
    33    20    15   ar
    34     8     1    1
    35    27    22   ar
    36    32    28   ar
@<TRIPOS>MOLECULE
*****
 32 36 0 0 0
SMALL
GASTEIGER

@<TRIPOS>ATOM
      1 N         138.6401  140.3561  160.0372 N.3     1  UNL1       -0.2695
      2 C         137.7612  140.3328  161.2525 C.3     1  UNL1        0.0939
      3 C         138.1014  139.4377  162.4071 C.3     1  UNL1        0.1107
      4 N         139.3205  138.5659  162.3465 N.am    1  UNL1       -0.2764
      5 C         139.6606  137.6709  163.5010 C.2     1  UNL1        0.2302
      6 O         140.8798  136.7991  163.4404 O.2     1  UNL1       -0.2745
      7 C         140.1995  138.5892  161.1312 C.3     1  UNL1        0.1107
      8 C         139.8593  139.4843  159.9766 C.3     1  UNL1        0.0939
      9 C         138.3000  141.2512  158.8827 C.3     1  UNL1        0.0769
     10 C         138.6008  142.7188  158.9574 C.3     1  UNL1        0.0437
     11 O         144.2881  144.8972  162.6372 O.2     1  UNL1       -0.2449
     12 C         142.7957  144.7575  162.6926 C.2     1  UNL1        0.3413
     13 O         141.9157  145.1480  163.8428 O.3     1  UNL1       -0.4404
     14 C         140.4974  144.8346  163.4685 C.3     1  UNL1        0.2356
     15 C         140.5008  144.2505  162.0869 C.ar    1  UNL1        0.0272
     16 C         139.3940  143.7558  161.2037 C.ar    1  UNL1       -0.0047
     17 C         139.7076  143.2135  159.8408 C.ar    1  UNL1       -0.0210
     18 C         141.1281  143.1659  159.3612 C.ar    1  UNL1       -0.0040
     19 C         142.2349  143.6605  160.2445 C.ar    1  UNL1        0.0059
     20 C         141.9212  144.2028  161.6074 C.ar    1  UNL1        0.0751
     21 C         138.7817  137.6476  164.7163 C.3     1  UNL1        0.1131
     22 C         139.1003  138.5266  165.8893 C.ar    1  UNL1        0.0062
     23 C         140.3936  139.2854  165.9285 C.ar    1  UNL1        0.0009
     24 C         140.7122  140.1644  167.1014 C.ar    1  UNL1        0.0386
     25 C         139.7376  140.2845  168.2352 C.ar    1  UNL1        0.1672
     26 N         138.4442  139.5257  168.1960 N.ar    1  UNL1       -0.2252
     27 C         138.1256  138.6467  167.0231 C.ar    1  UNL1        0.0968
     28 N         140.0562  141.1635  169.4082 N.ar    1  UNL1       -0.1708
     29 C         140.4463  142.6105  169.3455 C.ar    1  UNL1        0.2272
     30 N         140.6718  143.0911  170.7484 N.ar    1  UNL1       -0.1044
     31 N         140.4211  141.9411  171.6783 N.ar    1  UNL1       -0.0222
     32 N         140.0406  140.7498  170.8500 N.ar    1  UNL1       -0.0371
@<TRIPOS>BOND
     1    11    12    2
     2    12    13    1
     3    13    14    1
     4    14    15    1
     5    15    16   ar
     6    16    17   ar
     7    17    10    1
     8    10     9    1
     9     9     1    1
    10     1     2    1
    11     2     3    1
    12     3     4    1
    13     4     5   am
    14     5     6    2
    15     5    21    1
    16    21    22    1
    17    22    23   ar
    18    23    24   ar
    19    24    25   ar
    20    25    28    1
    21    28    29   ar
    22    29    30   ar
    23    30    31   ar
    24    31    32   ar
    25    25    26   ar
    26    26    27   ar
    27     4     7    1
    28     7     8    1
    29    17    18   ar
    30    18    19   ar
    31    19    20   ar
    32    20    12    1
    33    20    15   ar
    34     8     1    1
    35    27    22   ar
    36    32    28   ar
@<TRIPOS>MOLECULE
*****
 32 36 0 0 0
SMALL
GASTEIGER

@<TRIPOS>ATOM
      1 N         143.0312  141.5311  161.1815 N.3     1  UNL1       -0.2695
      2 C         143.5430  141.4364  162.5883 C.3     1  UNL1        0.0939
      3 C         143.1723  140.2612  163.4438 C.3     1  UNL1        0.1107
      4 N         142.2898  139.1809  162.8924 N.am    1  UNL1       -0.2764
      5 C         141.9192  138.0059  163.7479 C.2     1  UNL1        0.2302
      6 O         141.0366  136.9255  163.1965 O.2     1  UNL1       -0.2745
      7 C         141.7780  139.2756  161.4856 C.3     1  UNL1        0.1107
      8 C         142.1487  140.4507  160.6302 C.3     1  UNL1        0.0939
      9 C         143.4019  142.7061  160.3261 C.3     1  UNL1        0.0769
     10 C         142.5556  143.9445  160.3453 C.3     1  UNL1        0.0437
     11 O         138.5345  145.3922  166.0345 O.2     1  UNL1       -0.2449
     12 C         138.5248  144.7390  164.6842 C.2     1  UNL1        0.3413
     13 O         137.3535  144.0546  164.0443 O.3     1  UNL1       -0.4404
     14 C         137.7895  143.5481  162.7014 C.3     1  UNL1        0.2356
     15 C         139.2304  143.9194  162.5114 C.ar    1  UNL1        0.0272
     16 C         140.1873  143.6824  161.3809 C.ar    1  UNL1       -0.0047
     17 C         141.5986  144.1814  161.4758 C.ar    1  UNL1       -0.0210
     18 C         142.0531  144.9175  162.7013 C.ar    1  UNL1       -0.0040
     19 C         141.0962  145.1544  163.8318 C.ar    1  UNL1        0.0059
     20 C         139.6848  144.6554  163.7369 C.ar    1  UNL1        0.0751
     21 C         142.4310  137.9111  165.1546 C.3     1  UNL1        0.1131
     22 C         141.9632  138.8902  166.1905 C.ar    1  UNL1        0.0062
     23 C         142.8357  139.2105  167.3678 C.ar    1  UNL1        0.0009
     24 C         142.3680  140.1894  168.4036 C.ar    1  UNL1        0.0386
     25 C         141.0278  140.8480  168.2620 C.ar    1  UNL1        0.1672
     26 N         140.1553  140.5277  167.0846 N.ar    1  UNL1       -0.2252
     27 C         140.6230  139.5488  166.0489 C.ar    1  UNL1        0.0968
     28 N         140.5600  141.8271  169.2978 N.ar    1  UNL1       -0.1708
     29 C         140.4158  143.3082  169.1096 C.ar    1  UNL1        0.2272
     30 N         139.9210  143.8933  170.3991 N.ar    1  UNL1       -0.1044
     31 N         139.7594  142.7737  171.3843 N.ar    1  UNL1       -0.0222
     32 N         140.1543  141.4967  170.7036 N.ar    1  UNL1       -0.0371
@<TRIPOS>BOND
     1    11    12    2
     2    12    13    1
     3    13    14    1
     4    14    15    1
     5    15    16   ar
     6    16    17   ar
     7    17    10    1
     8    10     9    1
     9     9     1    1
    10     1     2    1
    11     2     3    1
    12     3     4    1
    13     4     5   am
    14     5     6    2
    15     5    21    1
    16    21    22    1
    17    22    23   ar
    18    23    24   ar
    19    24    25   ar
    20    25    28    1
    21    28    29   ar
    22    29    30   ar
    23    30    31   ar
    24    31    32   ar
    25    25    26   ar
    26    26    27   ar
    27     4     7    1
    28     7     8    1
    29    17    18   ar
    30    18    19   ar
    31    19    20   ar
    32    20    12    1
    33    20    15   ar
    34     8     1    1
    35    27    22   ar
    36    32    28   ar
@<TRIPOS>MOLECULE
*****
 32 36 0 0 0
SMALL
GASTEIGER

@<TRIPOS>ATOM
      1 N         139.8997  141.9402  160.9214 N.3     1  UNL1       -0.2695
      2 C         139.0592  141.8397  162.1598 C.3     1  UNL1        0.0939
      3 C         139.0533  140.5718  162.9613 C.3     1  UNL1        0.1107
      4 N         139.8879  139.4045  162.5246 N.am    1  UNL1       -0.2764
      5 C         139.8819  138.1367  163.3262 C.2     1  UNL1        0.2302
      6 O         140.7165  136.9692  162.8895 O.2     1  UNL1       -0.2745
      7 C         140.7284  139.5049  161.2863 C.3     1  UNL1        0.1107
      8 C         140.7343  140.7727  160.4847 C.3     1  UNL1        0.0939
      9 C         139.9057  143.2080  160.1199 C.3     1  UNL1        0.0769
     10 C         140.9491  144.2541  160.3787 C.3     1  UNL1        0.0437
     11 O         145.0315  144.0357  166.2026 O.2     1  UNL1       -0.2449
     12 C         144.8452  143.4453  164.8363 C.2     1  UNL1        0.3413
     13 O         145.7041  142.3880  164.2081 O.3     1  UNL1       -0.4404
     14 C         145.1570  142.0978  162.8420 C.3     1  UNL1        0.2356
     15 C         143.9600  142.9756  162.6258 C.ar    1  UNL1        0.0272
     16 C         143.0206  143.1241  161.4659 C.ar    1  UNL1       -0.0047
     17 C         141.8886  144.1055  161.5386 C.ar    1  UNL1       -0.0210
     18 C         141.6959  144.9383  162.7712 C.ar    1  UNL1       -0.0040
     19 C         142.6353  144.7897  163.9311 C.ar    1  UNL1        0.0059
     20 C         143.7673  143.8084  163.8584 C.ar    1  UNL1        0.0751
     21 C         139.0414  138.0362  164.5645 C.3     1  UNL1        0.1131
     22 C         139.4360  138.7869  165.8018 C.ar    1  UNL1        0.0062
     23 C         138.4160  139.0701  166.8645 C.ar    1  UNL1        0.0009
     24 C         138.8105  139.8208  168.1017 C.ar    1  UNL1        0.0386
     25 C         140.2250  140.2884  168.2762 C.ar    1  UNL1        0.1672
     26 N         141.2450  140.0052  167.2134 N.ar    1  UNL1       -0.2252
     27 C         140.8505  139.2545  165.9762 C.ar    1  UNL1        0.0968
     28 N         140.6196  141.0392  169.5134 N.ar    1  UNL1       -0.1708
     29 C         141.6844  142.0918  169.6041 C.ar    1  UNL1        0.2272
     30 N         141.7415  142.5723  171.0239 N.ar    1  UNL1       -0.1044
     31 N         140.7120  141.8166  171.8108 N.ar    1  UNL1       -0.0222
     32 N         140.0187  140.8691  170.8772 N.ar    1  UNL1       -0.0371
@<TRIPOS>BOND
     1    11    12    2
     2    12    13    1
     3    13    14    1
     4    14    15    1
     5    15    16   ar
     6    16    17   ar
     7    17    10    1
     8    10     9    1
     9     9     1    1
    10     1     2    1
    11     2     3    1
    12     3     4    1
    13     4     5   am
    14     5     6    2
    15     5    21    1
    16    21    22    1
    17    22    23   ar
    18    23    24   ar
    19    24    25   ar
    20    25    28    1
    21    28    29   ar
    22    29    30   ar
    23    30    31   ar
    24    31    32   ar
    25    25    26   ar
    26    26    27   ar
    27     4     7    1
    28     7     8    1
    29    17    18   ar
    30    18    19   ar
    31    19    20   ar
    32    20    12    1
    33    20    15   ar
    34     8     1    1
    35    27    22   ar
    36    32    28   ar
@<TRIPOS>MOLECULE
*****
 32 36 0 0 0
SMALL
GASTEIGER

@<TRIPOS>ATOM
      1 N         142.2510  142.2295  159.7083 N.3     1  UNL1       -0.2695
      2 C         141.8652  141.0009  160.4775 C.3     1  UNL1        0.0939
      3 C         142.7311  140.5182  161.6033 C.3     1  UNL1        0.1107
      4 N         143.9826  141.2642  161.9599 N.am    1  UNL1       -0.2764
      5 C         144.8484  140.7815  163.0857 C.2     1  UNL1        0.2302
      6 O         146.1000  141.5275  163.4423 O.2     1  UNL1       -0.2745
      7 C         144.3684  142.4928  161.1907 C.3     1  UNL1        0.1107
      8 C         143.5026  142.9755  160.0649 C.3     1  UNL1        0.0939
      9 C         141.3852  142.7122  158.5825 C.3     1  UNL1        0.0769
     10 C         140.1930  143.5758  158.8703 C.3     1  UNL1        0.0437
     11 O         138.5057  145.2066  165.5879 O.2     1  UNL1       -0.2449
     12 C         138.2711  144.2089  164.4926 C.2     1  UNL1        0.3413
     13 O         137.3912  142.9971  164.5775 O.3     1  UNL1       -0.4404
     14 C         137.4515  142.2872  163.2575 C.3     1  UNL1        0.2356
     15 C         138.3686  143.0603  162.3568 C.ar    1  UNL1        0.0272
     16 C         138.8078  142.8362  160.9402 C.ar    1  UNL1       -0.0047
     17 C         139.7537  143.7998  160.2870 C.ar    1  UNL1       -0.0210
     18 C         140.2602  144.9876  161.0503 C.ar    1  UNL1       -0.0040
     19 C         139.8210  145.2117  162.4669 C.ar    1  UNL1        0.0059
     20 C         138.8751  144.2480  163.1202 C.ar    1  UNL1        0.0751
     21 C         144.4626  139.5529  163.8549 C.3     1  UNL1        0.1131
     22 C         143.6138  139.6744  165.0857 C.ar    1  UNL1        0.0062
     23 C         143.7432  138.6658  166.1885 C.ar    1  UNL1        0.0009
     24 C         142.8944  138.7872  167.4192 C.ar    1  UNL1        0.0386
     25 C         141.9163  139.9172  167.5472 C.ar    1  UNL1        0.1672
     26 N         141.7869  140.9257  166.4445 N.ar    1  UNL1       -0.2252
     27 C         142.6357  140.8043  165.2137 C.ar    1  UNL1        0.0968
     28 N         141.0674  140.0386  168.7780 N.ar    1  UNL1       -0.1708
     29 C         141.5549  140.3786  170.1552 C.ar    1  UNL1        0.2272
     30 N         140.3709  140.3915  171.0760 N.ar    1  UNL1       -0.1044
     31 N         139.1515  140.0595  170.2679 N.ar    1  UNL1       -0.0222
     32 N         139.5821  139.8414  168.8476 N.ar    1  UNL1       -0.0371
@<TRIPOS>BOND
     1    11    12    2
     2    12    13    1
     3    13    14    1
     4    14    15    1
     5    15    16   ar
     6    16    17   ar
     7    17    10    1
     8    10     9    1
     9     9     1    1
    10     1     2    1
    11     2     3    1
    12     3     4    1
    13     4     5   am
    14     5     6    2
    15     5    21    1
    16    21    22    1
    17    22    23   ar
    18    23    24   ar
    19    24    25   ar
    20    25    28    1
    21    28    29   ar
    22    29    30   ar
    23    30    31   ar
    24    31    32   ar
    25    25    26   ar
    26    26    27   ar
    27     4     7    1
    28     7     8    1
    29    17    18   ar
    30    18    19   ar
    31    19    20   ar
    32    20    12    1
    33    20    15   ar
    34     8     1    1
    35    27    22   ar
    36    32    28   ar
@<TRIPOS>MOLECULE
*****
 32 36 0 0 0
SMALL
GASTEIGER

@<TRIPOS>ATOM
      1 N         140.7958  139.0092  160.8400 N.3     1  UNL1       -0.2695
      2 C         140.7317  138.3145  162.1679 C.3     1  UNL1        0.0939
      3 C         141.8218  138.5234  163.1770 C.3     1  UNL1        0.1107
      4 N         142.9759  139.4269  162.8581 N.am    1  UNL1       -0.2764
      5 C         144.0659  139.6357  163.8672 C.2     1  UNL1        0.2302
      6 O         145.2201  140.5392  163.5483 O.2     1  UNL1       -0.2745
      7 C         143.0400  140.1216  161.5302 C.3     1  UNL1        0.1107
      8 C         141.9499  139.9128  160.5212 C.3     1  UNL1        0.0939
      9 C         139.7057  138.8004  159.8310 C.3     1  UNL1        0.0769
     10 C         138.4546  139.6252  159.8970 C.3     1  UNL1        0.0437
     11 O         137.5463  144.5034  164.9970 O.2     1  UNL1       -0.2449
     12 C         138.1941  144.2535  163.6674 C.2     1  UNL1        0.3413
     13 O         139.0243  145.2338  162.8929 O.3     1  UNL1       -0.4404
     14 C         139.4687  144.5655  161.6257 C.3     1  UNL1        0.2356
     15 C         138.9132  143.1722  161.6170 C.ar    1  UNL1        0.0272
     16 C         139.0229  142.0541  160.6230 C.ar    1  UNL1       -0.0047
     17 C         138.3449  140.7433  160.8910 C.ar    1  UNL1       -0.0210
     18 C         137.5571  140.5504  162.1528 C.ar    1  UNL1       -0.0040
     19 C         137.4474  141.6684  163.1467 C.ar    1  UNL1        0.0059
     20 C         138.1254  142.9793  162.8788 C.ar    1  UNL1        0.0751
     21 C         144.0019  138.9410  165.1951 C.3     1  UNL1        0.1131
     22 C         143.3090  139.5975  166.3523 C.ar    1  UNL1        0.0062
     23 C         142.9670  141.0567  166.2919 C.ar    1  UNL1        0.0009
     24 C         142.2741  141.7132  167.4490 C.ar    1  UNL1        0.0386
     25 C         141.9233  140.9104  168.6665 C.ar    1  UNL1        0.1672
     26 N         142.2653  139.4512  168.7269 N.ar    1  UNL1       -0.2252
     27 C         142.9582  138.7947  167.5698 C.ar    1  UNL1        0.0968
     28 N         141.2305  141.5669  169.8237 N.ar    1  UNL1       -0.1708
     29 C         140.1182  142.5691  169.7322 C.ar    1  UNL1        0.2272
     30 N         139.7286  142.9580  171.1275 N.ar    1  UNL1       -0.1044
     31 N         140.6001  142.1960  172.0815 N.ar    1  UNL1       -0.0222
     32 N         141.5282  141.3363  171.2757 N.ar    1  UNL1       -0.0371
@<TRIPOS>BOND
     1    11    12    2
     2    12    13    1
     3    13    14    1
     4    14    15    1
     5    15    16   ar
     6    16    17   ar
     7    17    10    1
     8    10     9    1
     9     9     1    1
    10     1     2    1
    11     2     3    1
    12     3     4    1
    13     4     5   am
    14     5     6    2
    15     5    21    1
    16    21    22    1
    17    22    23   ar
    18    23    24   ar
    19    24    25   ar
    20    25    28    1
    21    28    29   ar
    22    29    30   ar
    23    30    31   ar
    24    31    32   ar
    25    25    26   ar
    26    26    27   ar
    27     4     7    1
    28     7     8    1
    29    17    18   ar
    30    18    19   ar
    31    19    20   ar
    32    20    12    1
    33    20    15   ar
    34     8     1    1
    35    27    22   ar
    36    32    28   ar
@<TRIPOS>MOLECULE
*****
 32 36 0 0 0
SMALL
GASTEIGER

@<TRIPOS>ATOM
      1 N         141.4171  138.2399  161.4318 N.3     1  UNL1       -0.2695
      2 C         141.3728  137.9577  162.9044 C.3     1  UNL1        0.0939
      3 C         140.2813  138.5464  163.7484 C.3     1  UNL1        0.1107
      4 N         139.2343  139.4173  163.1197 N.am    1  UNL1       -0.2764
      5 C         138.1429  140.0060  163.9637 C.2     1  UNL1        0.2302
      6 O         137.0957  140.8769  163.3351 O.2     1  UNL1       -0.2745
      7 C         139.2786  139.6995  161.6472 C.3     1  UNL1        0.1107
      8 C         140.3700  139.1108  160.8032 C.3     1  UNL1        0.0939
      9 C         142.5085  137.6512  160.5879 C.3     1  UNL1        0.0769
     10 C         143.8011  138.3912  160.4102 C.3     1  UNL1        0.0437
     11 O         144.3792  145.1484  162.5637 O.2     1  UNL1       -0.2449
     12 C         144.5478  143.7236  163.0012 C.2     1  UNL1        0.3413
     13 O         144.9977  143.2647  164.3566 O.3     1  UNL1       -0.4404
     14 C         145.0239  141.7650  164.3531 C.3     1  UNL1        0.2356
     15 C         144.5902  141.2969  162.9956 C.ar    1  UNL1        0.0272
     16 C         144.4253  139.9248  162.4123 C.ar    1  UNL1       -0.0047
     17 C         143.9660  139.7633  160.9936 C.ar    1  UNL1       -0.0210
     18 C         143.6717  140.9738  160.1580 C.ar    1  UNL1       -0.0040
     19 C         143.8367  142.3458  160.7413 C.ar    1  UNL1        0.0059
     20 C         144.2959  142.5074  162.1600 C.ar    1  UNL1        0.0751
     21 C         138.0986  139.7238  165.4362 C.3     1  UNL1        0.1131
     22 C         139.0728  140.3954  166.3582 C.ar    1  UNL1        0.0062
     23 C         139.4370  139.7511  167.6629 C.ar    1  UNL1        0.0009
     24 C         140.4111  140.4226  168.5849 C.ar    1  UNL1        0.0386
     25 C         141.0211  141.7384  168.2021 C.ar    1  UNL1        0.1672
     26 N         140.6569  142.3827  166.8974 N.ar    1  UNL1       -0.2252
     27 C         139.6828  141.7112  165.9755 C.ar    1  UNL1        0.0968
     28 N         141.9953  142.4100  169.1241 N.ar    1  UNL1       -0.1708
     29 C         143.4847  142.2320  169.1145 C.ar    1  UNL1        0.2272
     30 N         144.0610  143.0895  170.2020 N.ar    1  UNL1       -0.1044
     31 N         142.9277  143.7974  170.8838 N.ar    1  UNL1       -0.0222
     32 N         141.6511  143.3775  170.2176 N.ar    1  UNL1       -0.0371
@<TRIPOS>BOND
     1    11    12    2
     2    12    13    1
     3    13    14    1
     4    14    15    1
     5    15    16   ar
     6    16    17   ar
     7    17    10    1
     8    10     9    1
     9     9     1    1
    10     1     2    1
    11     2     3    1
    12     3     4    1
    13     4     5   am
    14     5     6    2
    15     5    21    1
    16    21    22    1
    17    22    23   ar
    18    23    24   ar
    19    24    25   ar
    20    25    28    1
    21    28    29   ar
    22    29    30   ar
    23    30    31   ar
    24    31    32   ar
    25    25    26   ar
    26    26    27   ar
    27     4     7    1
    28     7     8    1
    29    17    18   ar
    30    18    19   ar
    31    19    20   ar
    32    20    12    1
    33    20    15   ar
    34     8     1    1
    35    27    22   ar
    36    32    28   ar
@<TRIPOS>MOLECULE
*****
 32 36 0 0 0
SMALL
GASTEIGER

@<TRIPOS>ATOM
      1 N         138.9720  140.9260  159.8358 N.3     1  UNL1       -0.2695
      2 C         138.0262  140.8384  160.9968 C.3     1  UNL1        0.0939
      3 C         138.2733  139.8437  162.0920 C.3     1  UNL1        0.1107
      4 N         139.4661  138.9366  162.0262 N.am    1  UNL1       -0.2764
      5 C         139.7131  137.9419  163.1214 C.2     1  UNL1        0.2302
      6 O         140.9060  137.0347  163.0556 O.2     1  UNL1       -0.2745
      7 C         140.4118  139.0241  160.8652 C.3     1  UNL1        0.1107
      8 C         140.1648  140.0188  159.7700 C.3     1  UNL1        0.0939
      9 C         138.7249  141.9207  158.7406 C.3     1  UNL1        0.0769
     10 C         139.4661  143.2248  158.7306 C.3     1  UNL1        0.0437
     11 O         143.5012  145.1050  164.2817 O.2     1  UNL1       -0.2449
     12 C         143.5119  144.3634  162.9779 C.2     1  UNL1        0.3413
     13 O         144.6891  143.6545  162.3765 O.3     1  UNL1       -0.4404
     14 C         144.2520  143.0535  161.0735 C.3     1  UNL1        0.2356
     15 C         142.8048  143.3910  160.8696 C.ar    1  UNL1        0.0272
     16 C         141.8444  143.0658  159.7643 C.ar    1  UNL1       -0.0047
     17 C         140.4265  143.5501  159.8360 C.ar    1  UNL1       -0.0210
     18 C         139.9691  144.3596  161.0130 C.ar    1  UNL1       -0.0040
     19 C         140.9295  144.6849  162.1183 C.ar    1  UNL1        0.0059
     20 C         142.3473  144.2006  162.0466 C.ar    1  UNL1        0.0751
     21 C         138.7674  137.8543  164.2824 C.3     1  UNL1        0.1131
     22 C         139.0874  138.5624  165.5655 C.ar    1  UNL1        0.0062
     23 C         138.0231  138.7459  166.6064 C.ar    1  UNL1        0.0009
     24 C         138.3430  139.4540  167.8894 C.ar    1  UNL1        0.0386
     25 C         139.7273  139.9786  168.1315 C.ar    1  UNL1        0.1672
     26 N         140.7916  139.7951  167.0906 N.ar    1  UNL1       -0.2252
     27 C         140.4716  139.0870  165.8075 C.ar    1  UNL1        0.0968
     28 N         140.0473  140.6868  169.4146 N.ar    1  UNL1       -0.1708
     29 C         140.7050  140.0780  170.6174 C.ar    1  UNL1        0.2272
     30 N         140.8299  141.1430  171.6662 N.ar    1  UNL1       -0.1044
     31 N         140.2494  142.4101  171.1117 N.ar    1  UNL1       -0.0222
     32 N         139.7657  142.1281  169.7201 N.ar    1  UNL1       -0.0371
@<TRIPOS>BOND
     1    11    12    2
     2    12    13    1
     3    13    14    1
     4    14    15    1
     5    15    16   ar
     6    16    17   ar
     7    17    10    1
     8    10     9    1
     9     9     1    1
    10     1     2    1
    11     2     3    1
    12     3     4    1
    13     4     5   am
    14     5     6    2
    15     5    21    1
    16    21    22    1
    17    22    23   ar
    18    23    24   ar
    19    24    25   ar
    20    25    28    1
    21    28    29   ar
    22    29    30   ar
    23    30    31   ar
    24    31    32   ar
    25    25    26   ar
    26    26    27   ar
    27     4     7    1
    28     7     8    1
    29    17    18   ar
    30    18    19   ar
    31    19    20   ar
    32    20    12    1
    33    20    15   ar
    34     8     1    1
    35    27    22   ar
    36    32    28   ar
@<TRIPOS>MOLECULE
*****
 32 36 0 0 0
SMALL
GASTEIGER

@<TRIPOS>ATOM
      1 N         141.7148  140.0929  160.0582 N.3     1  UNL1       -0.2695
      2 C         140.6024  140.6317  160.9081 C.3     1  UNL1        0.0939
      3 C         140.1321  139.8601  162.1054 C.3     1  UNL1        0.1107
      4 N         140.7742  138.5498  162.4528 N.am    1  UNL1       -0.2764
      5 C         140.3038  137.7782  163.6500 C.2     1  UNL1        0.2302
      6 O         140.9459  136.4678  163.9974 O.2     1  UNL1       -0.2745
      7 C         141.8865  138.0110  161.6028 C.3     1  UNL1        0.1107
      8 C         142.3568  138.7825  160.4056 C.3     1  UNL1        0.0939
      9 C         142.1851  140.8645  158.8609 C.3     1  UNL1        0.0769
     10 C         143.1795  141.9750  159.0276 C.3     1  UNL1        0.0437
     11 O         145.0682  144.1546  165.5325 O.2     1  UNL1       -0.2449
     12 C         144.0725  144.3655  164.4306 C.2     1  UNL1        0.3413
     13 O         142.9380  145.3466  164.4433 O.3     1  UNL1       -0.4404
     14 C         142.2009  145.2197  163.1431 C.3     1  UNL1        0.2356
     15 C         142.8798  144.1600  162.3269 C.ar    1  UNL1        0.0272
     16 C         142.5941  143.6077  160.9619 C.ar    1  UNL1       -0.0047
     17 C         143.4652  142.5274  160.3926 C.ar    1  UNL1       -0.0210
     18 C         144.6220  141.9995  161.1883 C.ar    1  UNL1       -0.0040
     19 C         144.9076  142.5518  162.5533 C.ar    1  UNL1        0.0059
     20 C         144.0365  143.6321  163.1226 C.ar    1  UNL1        0.0751
     21 C         139.1915  138.3170  164.4999 C.3     1  UNL1        0.1131
     22 C         139.5020  138.9842  165.8071 C.ar    1  UNL1        0.0062
     23 C         138.4528  139.0643  166.8761 C.ar    1  UNL1        0.0009
     24 C         138.7633  139.7314  168.1832 C.ar    1  UNL1        0.0386
     25 C         140.1230  140.3183  168.4213 C.ar    1  UNL1        0.1672
     26 N         141.1722  140.2382  167.3523 N.ar    1  UNL1       -0.2252
     27 C         140.8617  139.5711  166.0452 C.ar    1  UNL1        0.0968
     28 N         140.4335  140.9855  169.7284 N.ar    1  UNL1       -0.1708
     29 C         141.7098  140.8520  170.5052 C.ar    1  UNL1        0.2272
     30 N         141.5873  141.6872  171.7451 N.ar    1  UNL1       -0.1044
     31 N         140.2353  142.3370  171.7347 N.ar    1  UNL1       -0.0222
     32 N         139.5223  141.9032  170.4883 N.ar    1  UNL1       -0.0371
@<TRIPOS>BOND
     1    11    12    2
     2    12    13    1
     3    13    14    1
     4    14    15    1
     5    15    16   ar
     6    16    17   ar
     7    17    10    1
     8    10     9    1
     9     9     1    1
    10     1     2    1
    11     2     3    1
    12     3     4    1
    13     4     5   am
    14     5     6    2
    15     5    21    1
    16    21    22    1
    17    22    23   ar
    18    23    24   ar
    19    24    25   ar
    20    25    28    1
    21    28    29   ar
    22    29    30   ar
    23    30    31   ar
    24    31    32   ar
    25    25    26   ar
    26    26    27   ar
    27     4     7    1
    28     7     8    1
    29    17    18   ar
    30    18    19   ar
    31    19    20   ar
    32    20    12    1
    33    20    15   ar
    34     8     1    1
    35    27    22   ar
    36    32    28   ar
