@<TRIPOS>MOLECULE
*****
 33 37 0 0 0
SMALL
GASTEIGER

@<TRIPOS>ATOM
      1 N         138.0169  140.3777  163.1437 N.3     1  UNL1       -0.2726
      2 C         138.0302  139.1532  162.2774 C.3     1  UNL1        0.0721
      3 C         138.9160  138.1336  162.9298 C.3     1  UNL1        0.0190
      4 C         139.4503  138.7278  164.1992 C.3     1  UNL1        0.0201
      5 C         140.2598  137.5317  164.6038 C.3     1  UNL1        0.0061
      6 C         140.2466  138.7562  165.4701 C.3     1  UNL1        0.0237
      7 C         138.8946  140.1148  164.3314 C.3     1  UNL1        0.0724
      8 C         140.6987  139.4795  166.7039 C.ar    1  UNL1       -0.0186
      9 C         139.6906  139.9425  167.7136 C.ar    1  UNL1       -0.0043
     10 C         140.1427  140.6658  168.9475 C.ar    1  UNL1       -0.0003
     11 C         141.6028  140.9261  169.1717 C.ar    1  UNL1       -0.0001
     12 C         142.6109  140.4630  168.1620 C.ar    1  UNL1        0.0035
     13 C         142.1588  139.7397  166.9281 C.ar    1  UNL1        0.0675
     14 C         143.1668  139.2767  165.9185 C.3     1  UNL1        0.4183
     15 F         144.1748  138.8137  164.9088 F       1  UNL1       -0.1659
     16 F         143.4370  138.0564  166.7479 F       1  UNL1       -0.1659
     17 F         142.8966  140.4970  165.0890 F       1  UNL1       -0.1659
     18 C         137.2591  141.6430  162.8703 C.3     1  UNL1        0.0730
     19 C         137.9653  142.8278  162.2808 C.3     1  UNL1        0.0294
     20 C         137.8512  144.1719  162.9369 C.3     1  UNL1        0.0666
     21 S         138.9931  145.1417  162.8633 S.3     1  UNL1       -0.0756
     22 C         142.5055  143.5737  162.3435 C.ar    1  UNL1        0.2029
     23 N         142.3411  144.3461  161.0681 N.ar    1  UNL1       -0.1250
     24 N         141.0054  145.0275  161.1076 N.ar    1  UNL1       -0.1220
     25 C         140.3442  144.6762  162.4074 C.ar    1  UNL1        0.1933
     26 N         141.2712  143.7778  163.1712 N.ar    1  UNL1       -0.2860
     27 C         141.0099  143.1871  164.5250 C.3     1  UNL1        0.1341
     28 C         143.5074  140.8556  160.8409 C.3     1  UNL1        0.0556
     29 C         144.1556  141.4938  162.0336 C.ar    1  UNL1        0.1001
     30 N         145.3782  140.9947  162.7450 N.ar    1  UNL1       -0.2085
     31 C         145.6733  141.9355  163.8754 C.ar    1  UNL1        0.2849
     32 O         144.6330  143.0162  163.8626 O.2     1  UNL1       -0.4283
     33 C         143.6951  142.7432  162.7242 C.ar    1  UNL1        0.1964
@<TRIPOS>BOND
     1    28    29    1
     2    29    30   ar
     3    30    31   ar
     4    31    32   ar
     5    32    33   ar
     6    33    22    1
     7    22    23   ar
     8    23    24   ar
     9    24    25   ar
    10    25    21    1
    11    21    20    1
    12    20    19    1
    13    19    18    1
    14    18     1    1
    15     1     2    1
    16     2     3    1
    17     4     3    1
    18     4     5    1
    19     5     6    1
    20     6     8    1
    21     8     9   ar
    22     9    10   ar
    23    10    11   ar
    24    11    12   ar
    25    12    13   ar
    26    13    14    1
    27    14    15    1
    28    14    16    1
    29    14    17    1
    30     4     7    1
    31    25    26   ar
    32    26    27    1
    33    33    29   ar
    34    26    22   ar
    35     7     1    1
    36     6     4    1
    37    13     8   ar
@<TRIPOS>MOLECULE
*****
 33 37 0 0 0
SMALL
GASTEIGER

@<TRIPOS>ATOM
      1 N         139.9175  144.9549  163.3517 N.3     1  UNL1       -0.2726
      2 C         138.8349  144.9601  164.3900 C.3     1  UNL1        0.0721
      3 C         139.2307  144.0053  165.4771 C.3     1  UNL1        0.0190
      4 C         140.5580  143.4101  165.1107 C.3     1  UNL1        0.0201
      5 C         140.6817  142.5418  166.3275 C.3     1  UNL1        0.0061
      6 C         141.7643  142.5367  165.2893 C.3     1  UNL1        0.0237
      7 C         140.9824  143.9970  163.7971 C.3     1  UNL1        0.0724
      8 C         143.0858  142.0295  164.7930 C.ar    1  UNL1       -0.0186
      9 C         144.0314  142.9600  164.0929 C.ar    1  UNL1       -0.0043
     10 C         145.3529  142.4528  163.5966 C.ar    1  UNL1       -0.0003
     11 C         145.7288  141.0151  163.8003 C.ar    1  UNL1       -0.0001
     12 C         144.7832  140.0845  164.5003 C.ar    1  UNL1        0.0035
     13 C         143.4617  140.5917  164.9966 C.ar    1  UNL1        0.0675
     14 C         142.5162  139.6612  165.6966 C.3     1  UNL1        0.4183
     15 F         141.5707  138.7307  166.3966 F       1  UNL1       -0.1659
     16 F         143.0510  140.1152  167.0225 F       1  UNL1       -0.1659
     17 F         141.9814  139.2071  164.3708 F       1  UNL1       -0.1659
     18 C         139.9325  145.7654  162.0896 C.3     1  UNL1        0.0730
     19 C         140.7740  145.3280  160.9275 C.3     1  UNL1        0.0294
     20 C         140.1450  144.5951  159.7797 C.3     1  UNL1        0.0666
     21 S         139.9657  143.1075  159.8478 S.3     1  UNL1       -0.0756
     22 C         138.4577  141.1212  162.8221 C.ar    1  UNL1        0.2029
     23 N         137.3077  142.0118  162.4554 N.ar    1  UNL1       -0.1250
     24 N         137.7326  142.8642  161.2966 N.ar    1  UNL1       -0.1220
     25 C         139.1453  142.5005  160.9471 C.ar    1  UNL1        0.1933
     26 N         139.5934  141.4233  161.8898 N.ar    1  UNL1       -0.2860
     27 C         140.9407  140.7639  161.8988 C.3     1  UNL1        0.1341
     28 C         138.9539  137.9143  162.4763 C.3     1  UNL1        0.0556
     29 C         138.6980  138.6327  163.7680 C.ar    1  UNL1        0.1001
     30 N         138.6251  138.0032  165.1276 N.ar    1  UNL1       -0.2085
     31 C         138.3521  139.0881  166.1268 C.ar    1  UNL1        0.2849
     32 O         138.2561  140.3882  165.3847 O.2     1  UNL1       -0.4283
     33 C         138.4699  140.1067  163.9270 C.ar    1  UNL1        0.1964
@<TRIPOS>BOND
     1    28    29    1
     2    29    30   ar
     3    30    31   ar
     4    31    32   ar
     5    32    33   ar
     6    33    22    1
     7    22    23   ar
     8    23    24   ar
     9    24    25   ar
    10    25    21    1
    11    21    20    1
    12    20    19    1
    13    19    18    1
    14    18     1    1
    15     1     2    1
    16     2     3    1
    17     4     3    1
    18     4     5    1
    19     5     6    1
    20     6     8    1
    21     8     9   ar
    22     9    10   ar
    23    10    11   ar
    24    11    12   ar
    25    12    13   ar
    26    13    14    1
    27    14    15    1
    28    14    16    1
    29    14    17    1
    30     4     7    1
    31    25    26   ar
    32    26    27    1
    33    33    29   ar
    34    26    22   ar
    35     7     1    1
    36     6     4    1
    37    13     8   ar
@<TRIPOS>MOLECULE
*****
 33 37 0 0 0
SMALL
GASTEIGER

@<TRIPOS>ATOM
      1 N         139.4315  139.4892  165.5007 N.3     1  UNL1       -0.2726
      2 C         139.3409  139.2906  166.9848 C.3     1  UNL1        0.0721
      3 C         139.7853  140.5593  167.6502 C.3     1  UNL1        0.0190
      4 C         140.1507  141.5420  166.5775 C.3     1  UNL1        0.0201
      5 C         140.5356  142.6539  167.5079 C.3     1  UNL1        0.0061
      6 C         140.6263  142.8525  166.0239 C.3     1  UNL1        0.0237
      7 C         139.9320  140.8807  165.2490 C.3     1  UNL1        0.0724
      8 C         140.9532  143.7238  164.8474 C.ar    1  UNL1       -0.0186
      9 C         142.3675  143.8230  164.3576 C.ar    1  UNL1       -0.0043
     10 C         142.6944  144.6943  163.1812 C.ar    1  UNL1       -0.0003
     11 C         141.6070  145.4663  162.4946 C.ar    1  UNL1       -0.0001
     12 C         140.1927  145.3671  162.9844 C.ar    1  UNL1        0.0035
     13 C         139.8657  144.4959  164.1608 C.ar    1  UNL1        0.0675
     14 C         138.4515  144.3967  164.6506 C.3     1  UNL1        0.4183
     15 F         137.0372  144.2975  165.1405 F       1  UNL1       -0.1659
     16 F         138.1750  143.3275  163.6356 F       1  UNL1       -0.1659
     17 F         138.7280  145.4659  165.6657 F       1  UNL1       -0.1659
     18 C         139.0829  138.4746  164.4524 C.3     1  UNL1        0.0730
     19 C         138.1862  138.8531  163.3111 C.3     1  UNL1        0.0294
     20 C         138.2703  138.1078  162.0120 C.3     1  UNL1        0.0666
     21 S         139.2772  138.5150  160.9775 S.3     1  UNL1       -0.0756
     22 C         142.2796  140.7425  162.0216 C.ar    1  UNL1        0.2029
     23 N         141.3270  141.7712  161.4883 N.ar    1  UNL1       -0.1250
     24 N         140.0864  141.0620  161.0322 N.ar    1  UNL1       -0.1220
     25 C         140.2722  139.5950  161.2837 C.ar    1  UNL1        0.1933
     26 N         141.6276  139.3974  161.8952 N.ar    1  UNL1       -0.2860
     27 C         142.2260  138.0853  162.3078 C.3     1  UNL1        0.1341
     28 C         144.6297  142.4980  160.5917 C.3     1  UNL1        0.0556
     29 C         144.7246  141.8184  161.9256 C.ar    1  UNL1        0.1001
     30 N         145.9164  141.8264  162.8364 N.ar    1  UNL1       -0.2085
     31 C         145.5727  141.0245  164.0565 C.ar    1  UNL1        0.2849
     32 O         144.1685  140.5208  163.8998 O.2     1  UNL1       -0.4283
     33 C         143.6444  141.0115  162.5828 C.ar    1  UNL1        0.1964
@<TRIPOS>BOND
     1    28    29    1
     2    29    30   ar
     3    30    31   ar
     4    31    32   ar
     5    32    33   ar
     6    33    22    1
     7    22    23   ar
     8    23    24   ar
     9    24    25   ar
    10    25    21    1
    11    21    20    1
    12    20    19    1
    13    19    18    1
    14    18     1    1
    15     1     2    1
    16     2     3    1
    17     4     3    1
    18     4     5    1
    19     5     6    1
    20     6     8    1
    21     8     9   ar
    22     9    10   ar
    23    10    11   ar
    24    11    12   ar
    25    12    13   ar
    26    13    14    1
    27    14    15    1
    28    14    16    1
    29    14    17    1
    30     4     7    1
    31    25    26   ar
    32    26    27    1
    33    33    29   ar
    34    26    22   ar
    35     7     1    1
    36     6     4    1
    37    13     8   ar
@<TRIPOS>MOLECULE
*****
 33 37 0 0 0
SMALL
GASTEIGER

@<TRIPOS>ATOM
      1 N         143.8299  141.9967  163.3544 N.3     1  UNL1       -0.2726
      2 C         145.2247  141.4504  163.4322 C.3     1  UNL1        0.0721
      3 C         145.1944  140.2230  164.2940 C.3     1  UNL1        0.0190
      4 C         143.7809  140.0108  164.7488 C.3     1  UNL1        0.0201
      5 C         144.0582  138.7737  165.5505 C.3     1  UNL1        0.0061
      6 C         142.6634  139.3200  165.4728 C.3     1  UNL1        0.0237
      7 C         142.9376  141.1070  164.1681 C.3     1  UNL1        0.0724
      8 C         141.2129  139.2366  165.8458 C.ar    1  UNL1       -0.0186
      9 C         140.7067  139.9644  167.0559 C.ar    1  UNL1       -0.0043
     10 C         139.2563  139.8810  167.4289 C.ar    1  UNL1       -0.0003
     11 C         138.3120  139.0699  166.5920 C.ar    1  UNL1       -0.0001
     12 C         138.8183  138.3421  165.3820 C.ar    1  UNL1        0.0035
     13 C         140.2687  138.4255  165.0089 C.ar    1  UNL1        0.0675
     14 C         140.7750  137.6978  163.7990 C.3     1  UNL1        0.4183
     15 F         141.2812  136.9700  162.5890 F       1  UNL1       -0.1659
     16 F         141.1011  136.5074  164.6514 F       1  UNL1       -0.1659
     17 F         140.4489  138.8881  162.9465 F       1  UNL1       -0.1659
     18 C         143.4025  143.2183  162.5961 C.3     1  UNL1        0.0730
     19 C         143.1174  144.4950  163.3300 C.3     1  UNL1        0.0294
     20 C         141.7159  144.8190  163.7552 C.3     1  UNL1        0.0666
     21 S         140.7324  145.3499  162.7549 S.3     1  UNL1       -0.0756
     22 C         138.6777  142.8803  160.5765 C.ar    1  UNL1        0.2029
     23 N         137.7263  143.1283  161.7094 N.ar    1  UNL1       -0.1250
     24 N         138.3801  144.0836  162.6633 N.ar    1  UNL1       -0.1220
     25 C         139.7357  144.4260  162.1200 C.ar    1  UNL1        0.1933
     26 N         139.9197  143.6824  160.8303 N.ar    1  UNL1       -0.2860
     27 C         141.1325  143.7321  159.9492 C.3     1  UNL1        0.1341
     28 C         137.9705  139.6967  160.6960 C.3     1  UNL1        0.0556
     29 C         138.1055  140.5238  159.4520 C.ar    1  UNL1        0.1001
     30 N         137.9392  140.0328  158.0444 N.ar    1  UNL1       -0.2085
     31 C         138.1615  141.1927  157.1195 C.ar    1  UNL1        0.2849
     32 O         138.4652  142.4005  157.9555 O.2     1  UNL1       -0.4283
     33 C         138.4306  141.9871  159.3970 C.ar    1  UNL1        0.1964
@<TRIPOS>BOND
     1    28    29    1
     2    29    30   ar
     3    30    31   ar
     4    31    32   ar
     5    32    33   ar
     6    33    22    1
     7    22    23   ar
     8    23    24   ar
     9    24    25   ar
    10    25    21    1
    11    21    20    1
    12    20    19    1
    13    19    18    1
    14    18     1    1
    15     1     2    1
    16     2     3    1
    17     4     3    1
    18     4     5    1
    19     5     6    1
    20     6     8    1
    21     8     9   ar
    22     9    10   ar
    23    10    11   ar
    24    11    12   ar
    25    12    13   ar
    26    13    14    1
    27    14    15    1
    28    14    16    1
    29    14    17    1
    30     4     7    1
    31    25    26   ar
    32    26    27    1
    33    33    29   ar
    34    26    22   ar
    35     7     1    1
    36     6     4    1
    37    13     8   ar
@<TRIPOS>MOLECULE
*****
 33 37 0 0 0
SMALL
GASTEIGER

@<TRIPOS>ATOM
      1 N         141.3312  138.4826  163.2164 N.3     1  UNL1       -0.2726
      2 C         141.6795  137.5496  164.3381 C.3     1  UNL1        0.0721
      3 C         142.1464  138.3755  165.4999 C.3     1  UNL1        0.0190
      4 C         142.0868  139.8189  165.0963 C.3     1  UNL1        0.0201
      5 C         142.5881  140.3670  166.3995 C.3     1  UNL1        0.0061
      6 C         142.2399  141.3000  165.2778 C.3     1  UNL1        0.0237
      7 C         141.5830  139.8852  163.6850 C.3     1  UNL1        0.0724
      8 C         142.1272  142.6938  164.7350 C.ar    1  UNL1       -0.0186
      9 C         140.7887  143.3678  164.6709 C.ar    1  UNL1       -0.0043
     10 C         140.6760  144.7616  164.1281 C.ar    1  UNL1       -0.0003
     11 C         141.9019  145.4813  163.6494 C.ar    1  UNL1       -0.0001
     12 C         143.2404  144.8073  163.7135 C.ar    1  UNL1        0.0035
     13 C         143.3531  143.4136  164.2563 C.ar    1  UNL1        0.0675
     14 C         144.6915  142.7396  164.3204 C.3     1  UNL1        0.4183
     15 F         146.0301  142.0656  164.3845 F       1  UNL1       -0.1659
     16 F         144.4008  142.0392  163.0262 F       1  UNL1       -0.1659
     17 F         144.9823  143.4400  165.6146 F       1  UNL1       -0.1659
     18 C         140.8209  138.0833  161.8636 C.3     1  UNL1        0.0730
     19 C         139.3518  137.8693  161.6494 C.3     1  UNL1        0.0294
     20 C         138.3578  138.7889  162.2948 C.3     1  UNL1        0.0666
     21 S         137.5746  139.7545  161.4558 S.3     1  UNL1       -0.0756
     22 C         139.2410  143.1254  160.4938 C.ar    1  UNL1        0.2029
     23 N         138.3314  143.5584  161.6053 N.ar    1  UNL1       -0.1250
     24 N         137.5965  142.3484  162.1009 N.ar    1  UNL1       -0.1220
     25 C         138.0518  141.1675  161.2958 C.ar    1  UNL1        0.1933
     26 N         139.0682  141.6477  160.3026 N.ar    1  UNL1       -0.2860
     27 C         139.7858  140.7992  159.2950 C.3     1  UNL1        0.1341
     28 C         142.5022  143.0834  160.6063 C.3     1  UNL1        0.0556
     29 C         141.6607  143.9948  159.7629 C.ar    1  UNL1        0.1001
     30 N         142.1705  145.0468  158.8230 N.ar    1  UNL1       -0.2085
     31 C         140.9866  145.7164  158.1905 C.ar    1  UNL1        0.2849
     32 O         139.7451  145.0781  158.7394 O.2     1  UNL1       -0.4283
     33 C         140.1618  144.0141  159.7112 C.ar    1  UNL1        0.1964
@<TRIPOS>BOND
     1    28    29    1
     2    29    30   ar
     3    30    31   ar
     4    31    32   ar
     5    32    33   ar
     6    33    22    1
     7    22    23   ar
     8    23    24   ar
     9    24    25   ar
    10    25    21    1
    11    21    20    1
    12    20    19    1
    13    19    18    1
    14    18     1    1
    15     1     2    1
    16     2     3    1
    17     4     3    1
    18     4     5    1
    19     5     6    1
    20     6     8    1
    21     8     9   ar
    22     9    10   ar
    23    10    11   ar
    24    11    12   ar
    25    12    13   ar
    26    13    14    1
    27    14    15    1
    28    14    16    1
    29    14    17    1
    30     4     7    1
    31    25    26   ar
    32    26    27    1
    33    33    29   ar
    34    26    22   ar
    35     7     1    1
    36     6     4    1
    37    13     8   ar
@<TRIPOS>MOLECULE
*****
 33 37 0 0 0
SMALL
GASTEIGER

@<TRIPOS>ATOM
      1 N         144.4243  141.6463  163.9903 N.3     1  UNL1       -0.2726
      2 C         144.4873  140.2317  163.4954 C.3     1  UNL1        0.0721
      3 C         143.8182  139.3548  164.5120 C.3     1  UNL1        0.0190
      4 C         143.3417  140.2275  165.6352 C.3     1  UNL1        0.0201
      5 C         142.7463  139.1197  166.4527 C.3     1  UNL1        0.0061
      6 C         142.6833  140.5343  166.9476 C.3     1  UNL1        0.0237
      7 C         143.7164  141.6437  165.3128 C.3     1  UNL1        0.0724
      8 C         142.2669  141.5282  167.9910 C.ar    1  UNL1       -0.0186
      9 C         143.2162  141.9043  169.0898 C.ar    1  UNL1       -0.0043
     10 C         142.7997  142.8982  170.1332 C.ar    1  UNL1       -0.0003
     11 C         141.4340  143.5160  170.0778 C.ar    1  UNL1       -0.0001
     12 C         140.4847  143.1399  168.9789 C.ar    1  UNL1        0.0035
     13 C         140.9011  142.1460  167.9355 C.ar    1  UNL1        0.0675
     14 C         139.9519  141.7699  166.8368 C.3     1  UNL1        0.4183
     15 F         139.0026  141.3938  165.7379 F       1  UNL1       -0.1659
     16 F         139.5308  140.5588  167.6152 F       1  UNL1       -0.1659
     17 F         140.3730  142.9810  166.0583 F       1  UNL1       -0.1659
     18 C         144.9730  142.8519  163.2864 C.3     1  UNL1        0.0730
     19 C         144.0398  143.8330  162.6412 C.3     1  UNL1        0.0294
     20 C         143.4427  144.9449  163.4519 C.3     1  UNL1        0.0666
     21 S         141.9616  144.9918  163.6844 S.3     1  UNL1       -0.0756
     22 C         139.6363  143.1576  161.1756 C.ar    1  UNL1        0.2029
     23 N         139.4990  144.5779  160.7130 N.ar    1  UNL1       -0.1250
     24 N         140.3533  145.4378  161.5965 N.ar    1  UNL1       -0.1220
     25 C         141.0187  144.5490  162.6051 C.ar    1  UNL1        0.1933
     26 N         140.5756  143.1398  162.3450 N.ar    1  UNL1       -0.2860
     27 C         140.9976  141.9259  163.1185 C.3     1  UNL1        0.1341
     28 C         137.4540  141.2426  162.6655 C.3     1  UNL1        0.0556
     29 C         137.9511  141.0844  161.2591 C.ar    1  UNL1        0.1001
     30 N         137.5324  140.0182  160.2907 N.ar    1  UNL1       -0.2085
     31 C         138.2767  140.2394  159.0073 C.ar    1  UNL1        0.2849
     32 O         139.1554  141.4424  159.1826 O.2     1  UNL1       -0.4283
     33 C         138.9542  141.9646  160.5743 C.ar    1  UNL1        0.1964
@<TRIPOS>BOND
     1    28    29    1
     2    29    30   ar
     3    30    31   ar
     4    31    32   ar
     5    32    33   ar
     6    33    22    1
     7    22    23   ar
     8    23    24   ar
     9    24    25   ar
    10    25    21    1
    11    21    20    1
    12    20    19    1
    13    19    18    1
    14    18     1    1
    15     1     2    1
    16     2     3    1
    17     4     3    1
    18     4     5    1
    19     5     6    1
    20     6     8    1
    21     8     9   ar
    22     9    10   ar
    23    10    11   ar
    24    11    12   ar
    25    12    13   ar
    26    13    14    1
    27    14    15    1
    28    14    16    1
    29    14    17    1
    30     4     7    1
    31    25    26   ar
    32    26    27    1
    33    33    29   ar
    34    26    22   ar
    35     7     1    1
    36     6     4    1
    37    13     8   ar
@<TRIPOS>MOLECULE
*****
 33 37 0 0 0
SMALL
GASTEIGER

@<TRIPOS>ATOM
      1 N         143.5137  143.3073  163.9487 N.3     1  UNL1       -0.2726
      2 C         143.2588  144.7293  163.5452 C.3     1  UNL1        0.0721
      3 C         141.8497  145.0739  163.9271 C.3     1  UNL1        0.0190
      4 C         141.2338  143.8648  164.5665 C.3     1  UNL1        0.0201
      5 C         139.8950  144.4895  164.8260 C.3     1  UNL1        0.0061
      6 C         140.1500  143.0674  165.2294 C.3     1  UNL1        0.0237
      7 C         142.2623  142.7730  164.5798 C.3     1  UNL1        0.0724
      8 C         139.6714  141.7861  165.8450 C.ar    1  UNL1       -0.0186
      9 C         138.6957  140.9180  165.1072 C.ar    1  UNL1       -0.0043
     10 C         138.2172  139.6366  165.7228 C.ar    1  UNL1       -0.0003
     11 C         138.7143  139.2233  167.0763 C.ar    1  UNL1       -0.0001
     12 C         139.6901  140.0914  167.8142 C.ar    1  UNL1        0.0035
     13 C         140.1686  141.3728  167.1985 C.ar    1  UNL1        0.0675
     14 C         141.1443  142.2408  167.9363 C.3     1  UNL1        0.4183
     15 F         142.1200  143.1089  168.6742 F       1  UNL1       -0.1659
     16 F         142.2704  141.3589  167.4847 F       1  UNL1       -0.1659
     17 F         140.0182  143.1228  168.3880 F       1  UNL1       -0.1659
     18 C         144.7952  142.5521  163.7550 C.3     1  UNL1        0.0730
     19 C         145.0358  141.7973  162.4812 C.3     1  UNL1        0.0294
     20 C         144.8246  142.4720  161.1582 C.3     1  UNL1        0.0666
     21 S         144.2221  141.7099  160.0154 S.3     1  UNL1       -0.0756
     22 C         141.5884  139.0246  160.9738 C.ar    1  UNL1        0.2029
     23 N         142.6839  138.1683  160.4111 N.ar    1  UNL1       -0.1250
     24 N         143.8038  139.0700  159.9836 N.ar    1  UNL1       -0.1220
     25 C         143.4004  140.4836  160.2821 C.ar    1  UNL1        0.1933
     26 N         142.0313  140.4556  160.8940 N.ar    1  UNL1       -0.2860
     27 C         141.2433  141.6489  161.3468 C.3     1  UNL1        0.1341
     28 C         141.1655  137.3968  163.7704 C.3     1  UNL1        0.0556
     29 C         140.0854  137.7876  162.8057 C.ar    1  UNL1        0.1001
     30 N         138.6213  137.4987  162.9571 N.ar    1  UNL1       -0.2085
     31 C         137.9108  138.0685  161.7652 C.ar    1  UNL1        0.2849
     32 O         138.9358  138.7094  160.8772 O.2     1  UNL1       -0.4283
     33 C         140.2797  138.5358  161.5203 C.ar    1  UNL1        0.1964
@<TRIPOS>BOND
     1    28    29    1
     2    29    30   ar
     3    30    31   ar
     4    31    32   ar
     5    32    33   ar
     6    33    22    1
     7    22    23   ar
     8    23    24   ar
     9    24    25   ar
    10    25    21    1
    11    21    20    1
    12    20    19    1
    13    19    18    1
    14    18     1    1
    15     1     2    1
    16     2     3    1
    17     4     3    1
    18     4     5    1
    19     5     6    1
    20     6     8    1
    21     8     9   ar
    22     9    10   ar
    23    10    11   ar
    24    11    12   ar
    25    12    13   ar
    26    13    14    1
    27    14    15    1
    28    14    16    1
    29    14    17    1
    30     4     7    1
    31    25    26   ar
    32    26    27    1
    33    33    29   ar
    34    26    22   ar
    35     7     1    1
    36     6     4    1
    37    13     8   ar
@<TRIPOS>MOLECULE
*****
 33 37 0 0 0
SMALL
GASTEIGER

@<TRIPOS>ATOM
      1 N         142.0368  143.5757  163.3395 N.3     1  UNL1       -0.2726
      2 C         141.5755  144.8025  164.0689 C.3     1  UNL1        0.0721
      3 C         140.1081  144.6547  164.3426 C.3     1  UNL1        0.0190
      4 C         139.6625  143.3366  163.7822 C.3     1  UNL1        0.0201
      5 C         138.2255  143.4703  164.1909 C.3     1  UNL1        0.0061
      6 C         138.6867  142.2434  163.4614 C.3     1  UNL1        0.0237
      7 C         140.8545  142.6697  163.1623 C.3     1  UNL1        0.0724
      8 C         138.3897  140.9040  162.8550 C.ar    1  UNL1       -0.0186
      9 C         137.8798  140.8145  161.4472 C.ar    1  UNL1       -0.0043
     10 C         137.5828  139.4751  160.8408 C.ar    1  UNL1       -0.0003
     11 C         137.7957  138.2252  161.6423 C.ar    1  UNL1       -0.0001
     12 C         138.3056  138.3147  163.0501 C.ar    1  UNL1        0.0035
     13 C         138.6026  139.6541  163.6565 C.ar    1  UNL1        0.0675
     14 C         139.1125  139.7436  165.0643 C.3     1  UNL1        0.4183
     15 F         139.6224  139.8331  166.4721 F       1  UNL1       -0.1659
     16 F         140.5165  139.5654  164.5671 F       1  UNL1       -0.1659
     17 F         137.7086  139.9219  165.5615 F       1  UNL1       -0.1659
     18 C         143.4350  143.3027  162.8697 C.3     1  UNL1        0.0730
     19 C         144.4923  142.9013  163.8550 C.3     1  UNL1        0.0294
     20 C         144.8691  141.4570  164.0042 C.3     1  UNL1        0.0666
     21 S         143.8038  140.4214  164.2103 S.3     1  UNL1       -0.0756
     22 C         142.6653  139.8180  167.8716 C.ar    1  UNL1        0.2029
     23 N         143.3672  138.5272  167.5698 N.ar    1  UNL1       -0.1250
     24 N         143.8791  138.5961  166.1616 N.ar    1  UNL1       -0.1220
     25 C         143.4936  139.9295  165.5930 C.ar    1  UNL1        0.1933
     26 N         142.7434  140.6847  166.6498 N.ar    1  UNL1       -0.2860
     27 C         142.1717  142.0644  166.5095 C.3     1  UNL1        0.1341
     28 C         143.6517  142.1296  169.9533 C.3     1  UNL1        0.0556
     29 C         142.4552  141.2413  170.1245 C.ar    1  UNL1        0.1001
     30 N         141.5020  141.2595  171.2825 N.ar    1  UNL1       -0.2085
     31 C         140.4595  140.2083  171.0414 C.ar    1  UNL1        0.2849
     32 O         140.7684  139.5403  169.7343 O.2     1  UNL1       -0.4283
     33 C         142.0018  140.1788  169.1677 C.ar    1  UNL1        0.1964
@<TRIPOS>BOND
     1    28    29    1
     2    29    30   ar
     3    30    31   ar
     4    31    32   ar
     5    32    33   ar
     6    33    22    1
     7    22    23   ar
     8    23    24   ar
     9    24    25   ar
    10    25    21    1
    11    21    20    1
    12    20    19    1
    13    19    18    1
    14    18     1    1
    15     1     2    1
    16     2     3    1
    17     4     3    1
    18     4     5    1
    19     5     6    1
    20     6     8    1
    21     8     9   ar
    22     9    10   ar
    23    10    11   ar
    24    11    12   ar
    25    12    13   ar
    26    13    14    1
    27    14    15    1
    28    14    16    1
    29    14    17    1
    30     4     7    1
    31    25    26   ar
    32    26    27    1
    33    33    29   ar
    34    26    22   ar
    35     7     1    1
    36     6     4    1
    37    13     8   ar
@<TRIPOS>MOLECULE
*****
 33 37 0 0 0
SMALL
GASTEIGER

@<TRIPOS>ATOM
      1 N         144.1577  142.2916  164.1711 N.3     1  UNL1       -0.2726
      2 C         145.3822  141.4974  163.8251 C.3     1  UNL1        0.0721
      3 C         145.1939  140.1040  164.3476 C.3     1  UNL1        0.0190
      4 C         143.8530  140.0370  165.0165 C.3     1  UNL1        0.0201
      5 C         143.9492  138.5946  165.4166 C.3     1  UNL1        0.0061
      6 C         142.7246  139.3888  165.7626 C.3     1  UNL1        0.0237
      7 C         143.2125  141.3890  164.9074 C.3     1  UNL1        0.0724
      8 C         141.3662  139.4730  166.3931 C.ar    1  UNL1       -0.0186
      9 C         140.1609  138.9845  165.6457 C.ar    1  UNL1       -0.0043
     10 C         138.8024  139.0688  166.2762 C.ar    1  UNL1       -0.0003
     11 C         138.6494  139.6415  167.6541 C.ar    1  UNL1       -0.0001
     12 C         139.8547  140.1300  168.4015 C.ar    1  UNL1        0.0035
     13 C         141.2131  140.0458  167.7710 C.ar    1  UNL1        0.0675
     14 C         142.4184  140.5342  168.5183 C.3     1  UNL1        0.4183
     15 F         143.6238  141.0227  169.2656 F       1  UNL1       -0.1659
     16 F         142.6645  139.1455  169.0290 F       1  UNL1       -0.1659
     17 F         142.1724  141.9230  168.0076 F       1  UNL1       -0.1659
     18 C         143.9199  143.7349  163.8391 C.3     1  UNL1        0.0730
     19 C         142.6864  144.4263  164.3395 C.3     1  UNL1        0.0294
     20 C         141.9724  145.4133  163.4642 C.3     1  UNL1        0.0666
     21 S         140.8322  144.9622  162.6003 S.3     1  UNL1       -0.0756
     22 C         140.4731  141.1880  161.7682 C.ar    1  UNL1        0.2029
     23 N         141.1638  141.6922  160.5357 N.ar    1  UNL1       -0.1250
     24 N         141.3823  143.1673  160.6975 N.ar    1  UNL1       -0.1220
     25 C         140.8268  143.5749  162.0299 C.ar    1  UNL1        0.1933
     26 N         140.2648  142.3516  162.6916 N.ar    1  UNL1       -0.2860
     27 C         139.6096  142.3009  164.0400 C.3     1  UNL1        0.1341
     28 C         142.4684  138.6099  161.9148 C.3     1  UNL1        0.0556
     29 C         140.9799  138.5843  162.0984 C.ar    1  UNL1        0.1001
     30 N         140.1472  137.3693  162.3816 N.ar    1  UNL1       -0.2085
     31 C         138.7154  137.8033  162.4893 C.ar    1  UNL1        0.2849
     32 O         138.6632  139.2867  162.2726 O.2     1  UNL1       -0.4283
     33 C         140.0628  139.7693  162.0310 C.ar    1  UNL1        0.1964
@<TRIPOS>BOND
     1    28    29    1
     2    29    30   ar
     3    30    31   ar
     4    31    32   ar
     5    32    33   ar
     6    33    22    1
     7    22    23   ar
     8    23    24   ar
     9    24    25   ar
    10    25    21    1
    11    21    20    1
    12    20    19    1
    13    19    18    1
    14    18     1    1
    15     1     2    1
    16     2     3    1
    17     4     3    1
    18     4     5    1
    19     5     6    1
    20     6     8    1
    21     8     9   ar
    22     9    10   ar
    23    10    11   ar
    24    11    12   ar
    25    12    13   ar
    26    13    14    1
    27    14    15    1
    28    14    16    1
    29    14    17    1
    30     4     7    1
    31    25    26   ar
    32    26    27    1
    33    33    29   ar
    34    26    22   ar
    35     7     1    1
    36     6     4    1
    37    13     8   ar
