@<TRIPOS>MOLECULE
*****
 39 44 0 0 0
SMALL
GASTEIGER

@<TRIPOS>ATOM
      1 C         141.9407  138.1256  163.9310 C.3     1  UNL1        0.0932
      2 C         142.1518  138.6246  162.5323 C.3     1  UNL1        0.0286
      3 C         143.3532  139.4621  162.2081 C.3     1  UNL1        0.0193
      4 C         144.3436  139.8006  163.2827 C.3     1  UNL1        0.0700
      5 C         144.1324  139.3017  164.6814 C.3     1  UNL1        0.0193
      6 C         142.9309  138.4641  165.0056 C.3     1  UNL1        0.0286
      7 C         143.7005  139.3387  163.5083 C.3     1  UNL1        0.1562
      8 O         142.6141  138.5814  163.8015 O.3     1  UNL1       -0.3572
      9 N         145.5450  140.6381  162.9585 N.3     1  UNL1       -0.2926
     10 H         145.6468  140.6266  161.9436 H       1  UNL1        0.1236
     11 C         145.5933  142.0762  163.3823 C.3     1  UNL1        0.1152
     12 C         144.3939  142.9559  163.1885 C.ar    1  UNL1        0.0765
     13 C         143.7237  143.5824  164.3752 C.ar    1  UNL1        0.0193
     14 C         142.5243  144.4621  164.1814 C.ar    1  UNL1        0.0411
     15 C         141.9950  144.7152  162.8009 C.ar    1  UNL1        0.1708
     16 C         142.6652  144.0887  161.6142 C.ar    1  UNL1        0.1682
     17 N         143.8646  143.2090  161.8080 N.ar    1  UNL1       -0.2304
     18 N         142.1359  144.3419  160.2337 N.am    1  UNL1       -0.2639
     19 C         140.9365  145.2215  160.0399 C.2     1  UNL1        0.2718
     20 O         140.4072  145.4747  158.6594 O.2     1  UNL1       -0.2707
     21 C         140.2663  145.8481  161.2267 C.3     1  UNL1        0.2898
     22 O         140.7956  145.5950  162.6072 O.3     1  UNL1       -0.4628
     23 H         142.5757  143.9306  159.4548 H       1  UNL1        0.1565
     24 C         140.7392  137.2881  164.2552 C.3     1  UNL1        0.0320
     25 C         139.5450  137.9129  164.9138 C.3     1  UNL1        0.0327
     26 C         140.7455  141.5290  167.3080 C.ar    1  UNL1        0.2247
     27 C         140.2854  142.8933  166.8877 C.ar    1  UNL1        0.0549
     28 C         139.4251  143.0524  165.6693 C.ar    1  UNL1        0.0019
     29 C         138.9649  144.4168  165.2489 C.3     1  UNL1        0.0328
     30 C         139.0249  141.8470  164.8712 C.ar    1  UNL1        0.0950
     31 N         138.1646  142.0060  163.6528 N.ar    1  UNL1       -0.2403
     32 C         137.7644  140.8007  162.8547 C.ar    1  UNL1        0.1281
     33 C         138.2246  139.4362  163.2750 C.ar    1  UNL1        0.1566
     34 F         137.8244  138.2309  162.4770 F       1  UNL1       -0.2028
     35 C         139.0849  139.2772  164.4935 C.ar    1  UNL1        0.0261
     36 C         139.4850  140.4827  165.2915 C.ar    1  UNL1        0.0999
     37 N         140.3454  140.3236  166.5100 N.ar    1  UNL1       -0.2104
     38 C         142.6403  140.2850  168.5778 C.3     1  UNL1        0.2542
     39 O         141.6059  141.3700  168.5265 O.3     1  UNL1       -0.4561
@<TRIPOS>BOND
     1    38    39    1
     2    39    26    1
     3    26    27   ar
     4    27    28   ar
     5    28    29    1
     6    28    30   ar
     7    30    31   ar
     8    31    32   ar
     9    32    33   ar
    10    33    34    1
    11    33    35   ar
    12    35    25    1
    13    25    24    1
    14    24     1    1
    15     1     2    1
    16     2     3    1
    17     3     4    1
    18     4     9    1
    19     9    11    1
    20    11    12    1
    21    12    13   ar
    22    13    14   ar
    23    14    15   ar
    24    15    16   ar
    25    16    17   ar
    26    16    18    1
    27    18    19   am
    28    19    20    2
    29    19    21    1
    30    21    22    1
    31     4     5    1
    32     5     6    1
    33     4     7    1
    34     7     8    1
    35    35    36   ar
    36    36    37   ar
    37    37    26   ar
    38    36    30   ar
    39     6     1    1
    40     8     1    1
    41    17    12   ar
    42    22    15    1
    43     9    10    1
    44    18    23    1
@<TRIPOS>MOLECULE
*****
 39 44 0 0 0
SMALL
GASTEIGER

@<TRIPOS>ATOM
      1 C         142.0926  138.0764  164.1657 C.3     1  UNL1        0.0932
      2 C         142.9086  138.7437  165.2329 C.3     1  UNL1        0.0286
      3 C         144.0822  139.5981  164.8554 C.3     1  UNL1        0.0193
      4 C         144.4400  139.7852  163.4107 C.3     1  UNL1        0.0700
      5 C         143.6240  139.1179  162.3435 C.3     1  UNL1        0.0193
      6 C         142.4503  138.2635  162.7210 C.3     1  UNL1        0.0286
      7 C         143.7881  139.3078  163.5688 C.3     1  UNL1        0.1562
      8 O         142.7268  138.5352  163.9100 O.3     1  UNL1       -0.3572
      9 N         145.6137  140.6396  163.0333 N.3     1  UNL1       -0.2926
     10 H         145.9598  140.2869  162.1410 H       1  UNL1        0.1236
     11 C         145.4429  142.1215  162.8762 C.3     1  UNL1        0.1152
     12 C         144.4366  142.6616  161.9038 C.ar    1  UNL1        0.0765
     13 C         144.4965  142.2577  160.4604 C.ar    1  UNL1        0.0193
     14 C         143.4902  142.7978  159.4881 C.ar    1  UNL1        0.0411
     15 C         142.4239  143.7418  159.9590 C.ar    1  UNL1        0.1708
     16 C         142.3640  144.1458  161.4023 C.ar    1  UNL1        0.1682
     17 N         143.3703  143.6057  162.3747 N.ar    1  UNL1       -0.2304
     18 N         141.2977  145.0899  161.8732 N.am    1  UNL1       -0.2639
     19 C         140.2914  145.6300  160.9008 C.2     1  UNL1        0.2718
     20 O         139.2251  146.5741  161.3717 O.2     1  UNL1       -0.2707
     21 C         140.3513  145.2260  159.4574 C.3     1  UNL1        0.2898
     22 O         141.4176  144.2819  158.9865 O.3     1  UNL1       -0.4628
     23 H         141.2583  145.3551  162.8205 H       1  UNL1        0.1565
     24 C         140.9189  137.2221  164.5431 C.3     1  UNL1        0.0320
     25 C         139.6447  137.8617  165.0094 C.3     1  UNL1        0.0327
     26 C         140.2554  141.9928  166.6860 C.ar    1  UNL1        0.2247
     27 C         139.7058  143.1852  165.9609 C.ar    1  UNL1        0.0549
     28 C         138.9525  143.0007  164.6769 C.ar    1  UNL1        0.0019
     29 C         138.4028  144.1933  163.9518 C.3     1  UNL1        0.0328
     30 C         138.7489  141.6237  164.1180 C.ar    1  UNL1        0.0950
     31 N         137.9957  141.4392  162.8341 N.ar    1  UNL1       -0.2403
     32 C         137.7921  140.0622  162.2752 C.ar    1  UNL1        0.1281
     33 C         138.3418  138.8696  163.0003 C.ar    1  UNL1        0.1566
     34 F         138.1382  137.4926  162.4414 F       1  UNL1       -0.2028
     35 C         139.0951  139.0541  164.2843 C.ar    1  UNL1        0.0261
     36 C         139.2986  140.4312  164.8431 C.ar    1  UNL1        0.0999
     37 N         140.0519  140.6158  166.1271 N.ar    1  UNL1       -0.2104
     38 C         140.4468  143.0537  169.0498 C.3     1  UNL1        0.2542
     39 O         141.0087  142.1773  167.9699 O.3     1  UNL1       -0.4561
@<TRIPOS>BOND
     1    38    39    1
     2    39    26    1
     3    26    27   ar
     4    27    28   ar
     5    28    29    1
     6    28    30   ar
     7    30    31   ar
     8    31    32   ar
     9    32    33   ar
    10    33    34    1
    11    33    35   ar
    12    35    25    1
    13    25    24    1
    14    24     1    1
    15     1     2    1
    16     2     3    1
    17     3     4    1
    18     4     9    1
    19     9    11    1
    20    11    12    1
    21    12    13   ar
    22    13    14   ar
    23    14    15   ar
    24    15    16   ar
    25    16    17   ar
    26    16    18    1
    27    18    19   am
    28    19    20    2
    29    19    21    1
    30    21    22    1
    31     4     5    1
    32     5     6    1
    33     4     7    1
    34     7     8    1
    35    35    36   ar
    36    36    37   ar
    37    37    26   ar
    38    36    30   ar
    39     6     1    1
    40     8     1    1
    41    17    12   ar
    42    22    15    1
    43     9    10    1
    44    18    23    1
@<TRIPOS>MOLECULE
*****
 39 44 0 0 0
SMALL
GASTEIGER

@<TRIPOS>ATOM
      1 C         142.2062  137.9565  163.2813 C.3     1  UNL1        0.0932
      2 C         142.5192  138.5267  164.6329 C.3     1  UNL1        0.0286
      3 C         143.6567  139.4909  164.7950 C.3     1  UNL1        0.0193
      4 C         144.4812  139.8850  163.6054 C.3     1  UNL1        0.0700
      5 C         144.1682  139.3148  162.2538 C.3     1  UNL1        0.0193
      6 C         143.0306  138.3505  162.0918 C.3     1  UNL1        0.0286
      7 C         143.8679  139.3533  163.4673 C.3     1  UNL1        0.1562
      8 O         142.8394  138.4814  163.3207 O.3     1  UNL1       -0.3572
      9 N         145.6187  140.8492  163.7675 N.3     1  UNL1       -0.2926
     10 H         146.4697  140.3454  163.5177 H       1  UNL1        0.1236
     11 C         145.6310  142.1321  162.9903 C.3     1  UNL1        0.1152
     12 C         144.4178  143.0141  162.9796 C.ar    1  UNL1        0.0765
     13 C         143.8856  143.5732  164.2658 C.ar    1  UNL1        0.0193
     14 C         142.6724  144.4553  164.2550 C.ar    1  UNL1        0.0411
     15 C         141.9914  144.7783  162.9581 C.ar    1  UNL1        0.1708
     16 C         142.5236  144.2192  161.6720 C.ar    1  UNL1        0.1682
     17 N         143.7368  143.3371  161.6827 N.ar    1  UNL1       -0.2304
     18 N         141.8426  144.5422  160.3751 N.am    1  UNL1       -0.2639
     19 C         140.6294  145.4242  160.3643 C.2     1  UNL1        0.2718
     20 O         139.9485  145.7472  159.0674 O.2     1  UNL1       -0.2707
     21 C         140.0972  145.9833  161.6505 C.3     1  UNL1        0.2898
     22 O         140.7782  145.6604  162.9474 O.3     1  UNL1       -0.4628
     23 H         142.1919  144.1753  159.5309 H       1  UNL1        0.1565
     24 C         141.0687  136.9922  163.1192 C.3     1  UNL1        0.0320
     25 C         139.6791  137.5047  162.8813 C.3     1  UNL1        0.0327
     26 C         139.4179  141.6901  161.2492 C.ar    1  UNL1        0.2247
     27 C         138.8697  142.7951  162.1027 C.ar    1  UNL1        0.0549
     28 C         138.4085  142.5049  163.5002 C.ar    1  UNL1        0.0019
     29 C         137.8603  143.6100  164.3537 C.3     1  UNL1        0.0328
     30 C         138.4956  141.1098  164.0443 C.ar    1  UNL1        0.0950
     31 N         138.0345  140.8197  165.4418 N.ar    1  UNL1       -0.2403
     32 C         138.1215  139.4245  165.9859 C.ar    1  UNL1        0.1281
     33 C         138.6697  138.3195  165.1324 C.ar    1  UNL1        0.1566
     34 F         138.7568  136.9244  165.6764 F       1  UNL1       -0.2028
     35 C         139.1309  138.6097  163.7348 C.ar    1  UNL1        0.0261
     36 C         139.0438  140.0049  163.1908 C.ar    1  UNL1        0.0999
     37 N         139.5049  140.2950  161.7932 N.ar    1  UNL1       -0.2104
     38 C         138.9034  142.4828  158.8290 C.3     1  UNL1        0.2542
     39 O         139.8790  141.9803  159.8516 O.3     1  UNL1       -0.4561
@<TRIPOS>BOND
     1    38    39    1
     2    39    26    1
     3    26    27   ar
     4    27    28   ar
     5    28    29    1
     6    28    30   ar
     7    30    31   ar
     8    31    32   ar
     9    32    33   ar
    10    33    34    1
    11    33    35   ar
    12    35    25    1
    13    25    24    1
    14    24     1    1
    15     1     2    1
    16     2     3    1
    17     3     4    1
    18     4     9    1
    19     9    11    1
    20    11    12    1
    21    12    13   ar
    22    13    14   ar
    23    14    15   ar
    24    15    16   ar
    25    16    17   ar
    26    16    18    1
    27    18    19   am
    28    19    20    2
    29    19    21    1
    30    21    22    1
    31     4     5    1
    32     5     6    1
    33     4     7    1
    34     7     8    1
    35    35    36   ar
    36    36    37   ar
    37    37    26   ar
    38    36    30   ar
    39     6     1    1
    40     8     1    1
    41    17    12   ar
    42    22    15    1
    43     9    10    1
    44    18    23    1
@<TRIPOS>MOLECULE
*****
 39 44 0 0 0
SMALL
GASTEIGER

@<TRIPOS>ATOM
      1 C         137.9053  142.7316  163.8816 C.3     1  UNL1        0.0932
      2 C         137.7244  142.5910  162.3992 C.3     1  UNL1        0.0286
      3 C         137.7247  141.2297  161.7694 C.3     1  UNL1        0.0193
      4 C         137.9060  140.0089  162.6220 C.3     1  UNL1        0.0700
      5 C         138.0869  140.1495  164.1044 C.3     1  UNL1        0.0193
      6 C         138.0865  141.5109  164.7342 C.3     1  UNL1        0.0286
      7 C         137.9128  140.7338  163.0124 C.3     1  UNL1        0.1562
      8 O         137.9125  141.9647  163.5819 O.3     1  UNL1       -0.3572
      9 N         137.9063  138.6475  161.9922 N.3     1  UNL1       -0.2926
     10 H         137.1489  138.6390  161.3091 H       1  UNL1        0.1236
     11 C         139.1319  138.1481  161.2861 C.3     1  UNL1        0.1152
     12 C         140.4894  138.3952  161.8743 C.ar    1  UNL1        0.0765
     13 C         141.5950  138.9276  161.0116 C.ar    1  UNL1        0.0193
     14 C         142.9526  139.1748  161.5998 C.ar    1  UNL1        0.0411
     15 C         143.2045  138.8895  163.0507 C.ar    1  UNL1        0.1708
     16 C         142.0990  138.3572  163.9134 C.ar    1  UNL1        0.1682
     17 N         140.7414  138.1100  163.3253 N.ar    1  UNL1       -0.2304
     18 N         142.3509  138.0720  165.3644 N.am    1  UNL1       -0.2639
     19 C         143.7085  138.3191  165.9526 C.2     1  UNL1        0.2718
     20 O         143.9604  138.0339  167.4035 O.2     1  UNL1       -0.2707
     21 C         144.8141  138.8515  165.0899 C.3     1  UNL1        0.2898
     22 O         144.5621  139.1367  163.6389 O.3     1  UNL1       -0.4628
     23 H         141.6253  137.7226  165.9306 H       1  UNL1        0.1565
     24 C         137.9050  144.0930  164.5114 C.3     1  UNL1        0.0320
     25 C         139.1957  144.8350  164.6946 C.3     1  UNL1        0.0327
     26 C         142.8072  142.3724  165.7636 C.ar    1  UNL1        0.2247
     27 C         143.9185  142.2006  164.7708 C.ar    1  UNL1        0.0549
     28 C         143.8259  142.8497  163.4217 C.ar    1  UNL1        0.0019
     29 C         144.9372  142.6779  162.4289 C.3     1  UNL1        0.0328
     30 C         142.6221  143.6706  163.0654 C.ar    1  UNL1        0.0950
     31 N         142.5295  144.3197  161.7163 N.ar    1  UNL1       -0.2403
     32 C         141.3257  145.1405  161.3599 C.ar    1  UNL1        0.1281
     33 C         140.2144  145.3123  162.3527 C.ar    1  UNL1        0.1566
     34 F         139.0106  146.1331  161.9964 F       1  UNL1       -0.2028
     35 C         140.3070  144.6632  163.7018 C.ar    1  UNL1        0.0261
     36 C         141.5109  143.8423  164.0582 C.ar    1  UNL1        0.0999
     37 N         141.6034  143.1932  165.4073 N.ar    1  UNL1       -0.2104
     38 C         141.7127  141.0050  167.6825 C.3     1  UNL1        0.2542
     39 O         142.8998  141.7233  167.1127 O.3     1  UNL1       -0.4561
@<TRIPOS>BOND
     1    38    39    1
     2    39    26    1
     3    26    27   ar
     4    27    28   ar
     5    28    29    1
     6    28    30   ar
     7    30    31   ar
     8    31    32   ar
     9    32    33   ar
    10    33    34    1
    11    33    35   ar
    12    35    25    1
    13    25    24    1
    14    24     1    1
    15     1     2    1
    16     2     3    1
    17     3     4    1
    18     4     9    1
    19     9    11    1
    20    11    12    1
    21    12    13   ar
    22    13    14   ar
    23    14    15   ar
    24    15    16   ar
    25    16    17   ar
    26    16    18    1
    27    18    19   am
    28    19    20    2
    29    19    21    1
    30    21    22    1
    31     4     5    1
    32     5     6    1
    33     4     7    1
    34     7     8    1
    35    35    36   ar
    36    36    37   ar
    37    37    26   ar
    38    36    30   ar
    39     6     1    1
    40     8     1    1
    41    17    12   ar
    42    22    15    1
    43     9    10    1
    44    18    23    1
@<TRIPOS>MOLECULE
*****
 39 44 0 0 0
SMALL
GASTEIGER

@<TRIPOS>ATOM
      1 C         141.7278  138.3419  164.5071 C.3     1  UNL1        0.0932
      2 C         141.7909  138.9528  163.1386 C.3     1  UNL1        0.0286
      3 C         143.0379  139.6533  162.6867 C.3     1  UNL1        0.0193
      4 C         144.2219  139.7430  163.6035 C.3     1  UNL1        0.0700
      5 C         144.1587  139.1321  164.9720 C.3     1  UNL1        0.0193
      6 C         142.9116  138.4316  165.4238 C.3     1  UNL1        0.0286
      7 C         143.5604  139.3491  163.8954 C.3     1  UNL1        0.1562
      8 O         142.4328  138.7156  164.3039 O.3     1  UNL1       -0.3572
      9 N         145.4689  140.4436  163.1516 N.3     1  UNL1       -0.2926
     10 H         145.5779  140.2393  162.1583 H       1  UNL1        0.1236
     11 C         145.5906  141.9309  163.3037 C.3     1  UNL1        0.1152
     12 C         144.4116  142.8130  163.0179 C.ar    1  UNL1        0.0765
     13 C         143.6855  143.4835  164.1463 C.ar    1  UNL1        0.0193
     14 C         142.5065  144.3657  163.8605 C.ar    1  UNL1        0.0411
     15 C         142.0536  144.5774  162.4462 C.ar    1  UNL1        0.1708
     16 C         142.7797  143.9069  161.3179 C.ar    1  UNL1        0.1682
     17 N         143.9587  143.0247  161.6037 N.ar    1  UNL1       -0.2304
     18 N         142.3267  144.1186  159.9036 N.am    1  UNL1       -0.2639
     19 C         141.1478  145.0008  159.6178 C.2     1  UNL1        0.2718
     20 O         140.6948  145.2125  158.2036 O.2     1  UNL1       -0.2707
     21 C         140.4216  145.6713  160.7462 C.3     1  UNL1        0.2898
     22 O         140.8745  145.4596  162.1604 O.3     1  UNL1       -0.4628
     23 H         142.8033  143.6786  159.1630 H       1  UNL1        0.1565
     24 C         140.4808  137.6414  164.9589 C.3     1  UNL1        0.0320
     25 C         139.4456  138.3870  165.7480 C.3     1  UNL1        0.0327
     26 C         137.8566  141.5363  162.9539 C.ar    1  UNL1        0.2247
     27 C         138.0568  142.9889  163.2695 C.ar    1  UNL1        0.0549
     28 C         138.7866  143.3919  164.5166 C.ar    1  UNL1        0.0019
     29 C         138.9867  144.8446  164.8322 C.3     1  UNL1        0.0328
     30 C         139.3162  142.3421  165.4479 C.ar    1  UNL1        0.0950
     31 N         140.0460  142.7451  166.6949 N.ar    1  UNL1       -0.2403
     32 C         140.5757  141.6953  167.6263 C.ar    1  UNL1        0.1281
     33 C         140.3756  140.2426  167.3107 C.ar    1  UNL1        0.1566
     34 F         140.9052  139.1929  168.2420 F       1  UNL1       -0.2028
     35 C         139.6458  139.8397  166.0637 C.ar    1  UNL1        0.0261
     36 C         139.1161  140.8895  165.1323 C.ar    1  UNL1        0.0999
     37 N         138.3863  140.4865  163.8853 N.ar    1  UNL1       -0.2104
     38 C         137.5574  139.9140  160.9467 C.3     1  UNL1        0.2542
     39 O         137.1268  141.1333  161.7069 O.3     1  UNL1       -0.4561
@<TRIPOS>BOND
     1    38    39    1
     2    39    26    1
     3    26    27   ar
     4    27    28   ar
     5    28    29    1
     6    28    30   ar
     7    30    31   ar
     8    31    32   ar
     9    32    33   ar
    10    33    34    1
    11    33    35   ar
    12    35    25    1
    13    25    24    1
    14    24     1    1
    15     1     2    1
    16     2     3    1
    17     3     4    1
    18     4     9    1
    19     9    11    1
    20    11    12    1
    21    12    13   ar
    22    13    14   ar
    23    14    15   ar
    24    15    16   ar
    25    16    17   ar
    26    16    18    1
    27    18    19   am
    28    19    20    2
    29    19    21    1
    30    21    22    1
    31     4     5    1
    32     5     6    1
    33     4     7    1
    34     7     8    1
    35    35    36   ar
    36    36    37   ar
    37    37    26   ar
    38    36    30   ar
    39     6     1    1
    40     8     1    1
    41    17    12   ar
    42    22    15    1
    43     9    10    1
    44    18    23    1
@<TRIPOS>MOLECULE
*****
 39 44 0 0 0
SMALL
GASTEIGER

@<TRIPOS>ATOM
      1 C         137.7818  142.6343  163.8279 C.3     1  UNL1        0.0932
      2 C         137.6575  142.5139  162.3379 C.3     1  UNL1        0.0286
      3 C         137.6837  141.1614  161.6899 C.3     1  UNL1        0.0193
      4 C         137.8342  139.9291  162.5320 C.3     1  UNL1        0.0700
      5 C         137.9585  140.0495  164.0220 C.3     1  UNL1        0.0193
      6 C         137.9323  141.4021  164.6699 C.3     1  UNL1        0.0286
      7 C         137.8252  140.6486  162.9323 C.3     1  UNL1        0.1562
      8 O         137.8015  141.8716  163.5182 O.3     1  UNL1       -0.3572
      9 N         137.8605  138.5766  161.8840 N.3     1  UNL1       -0.2926
     10 H         137.3227  138.6532  161.0207 H       1  UNL1        0.1236
     11 C         139.1714  137.9433  161.5228 C.3     1  UNL1        0.1152
     12 C         140.3575  138.1069  162.4262 C.ar    1  UNL1        0.0765
     13 C         140.4403  137.3259  163.7042 C.ar    1  UNL1        0.0193
     14 C         141.6265  137.4895  164.6077 C.ar    1  UNL1        0.0411
     15 C         142.7299  138.4341  164.2332 C.ar    1  UNL1        0.1708
     16 C         142.6471  139.2151  162.9552 C.ar    1  UNL1        0.1682
     17 N         141.4609  139.0515  162.0517 N.ar    1  UNL1       -0.2304
     18 N         143.7505  140.1597  162.5807 N.am    1  UNL1       -0.2639
     19 C         144.9366  140.3233  163.4842 C.2     1  UNL1        0.2718
     20 O         146.0400  141.2679  163.1097 O.2     1  UNL1       -0.2707
     21 C         145.0194  139.5423  164.7622 C.3     1  UNL1        0.2898
     22 O         143.9161  138.5977  165.1367 O.3     1  UNL1       -0.4628
     23 H         143.6961  140.6723  161.7420 H       1  UNL1        0.1565
     24 C         137.7555  143.9868  164.4759 C.3     1  UNL1        0.0320
     25 C         139.0303  144.7563  164.6576 C.3     1  UNL1        0.0327
     26 C         140.6270  145.0775  160.4627 C.ar    1  UNL1        0.2247
     27 C         141.9410  144.4459  160.1099 C.ar    1  UNL1        0.0549
     28 C         142.7228  143.7073  161.1555 C.ar    1  UNL1        0.0019
     29 C         144.0369  143.0757  160.8027 C.3     1  UNL1        0.0328
     30 C         142.1906  143.6002  162.5538 C.ar    1  UNL1        0.0950
     31 N         142.9724  142.8616  163.5994 N.ar    1  UNL1       -0.2403
     32 C         142.4402  142.7545  164.9976 C.ar    1  UNL1        0.1281
     33 C         141.1261  143.3861  165.3504 C.ar    1  UNL1        0.1566
     34 F         140.5939  143.2791  166.7487 F       1  UNL1       -0.2028
     35 C         140.3443  144.1247  164.3049 C.ar    1  UNL1        0.0261
     36 C         140.8766  144.2318  162.9065 C.ar    1  UNL1        0.0999
     37 N         140.0948  144.9704  161.8609 N.ar    1  UNL1       -0.2104
     38 C         140.3073  145.8084  157.9901 C.3     1  UNL1        0.2542
     39 O         139.8452  145.8161  159.4171 O.3     1  UNL1       -0.4561
@<TRIPOS>BOND
     1    38    39    1
     2    39    26    1
     3    26    27   ar
     4    27    28   ar
     5    28    29    1
     6    28    30   ar
     7    30    31   ar
     8    31    32   ar
     9    32    33   ar
    10    33    34    1
    11    33    35   ar
    12    35    25    1
    13    25    24    1
    14    24     1    1
    15     1     2    1
    16     2     3    1
    17     3     4    1
    18     4     9    1
    19     9    11    1
    20    11    12    1
    21    12    13   ar
    22    13    14   ar
    23    14    15   ar
    24    15    16   ar
    25    16    17   ar
    26    16    18    1
    27    18    19   am
    28    19    20    2
    29    19    21    1
    30    21    22    1
    31     4     5    1
    32     5     6    1
    33     4     7    1
    34     7     8    1
    35    35    36   ar
    36    36    37   ar
    37    37    26   ar
    38    36    30   ar
    39     6     1    1
    40     8     1    1
    41    17    12   ar
    42    22    15    1
    43     9    10    1
    44    18    23    1
@<TRIPOS>MOLECULE
*****
 39 44 0 0 0
SMALL
GASTEIGER

@<TRIPOS>ATOM
      1 C         144.3561  139.6850  163.7227 C.3     1  UNL1        0.0932
      2 C         143.4101  139.2704  164.8104 C.3     1  UNL1        0.0286
      3 C         142.2282  138.4052  164.4870 C.3     1  UNL1        0.0193
      4 C         141.9924  137.9545  163.0758 C.3     1  UNL1        0.0700
      5 C         142.9385  138.3691  161.9881 C.3     1  UNL1        0.0193
      6 C         144.1203  139.2344  162.3116 C.3     1  UNL1        0.0286
      7 C         142.6537  138.4279  163.2045 C.3     1  UNL1        0.1562
      8 O         143.7224  139.2103  163.4969 O.3     1  UNL1       -0.3572
      9 N         140.8106  137.0893  162.7524 N.3     1  UNL1       -0.2926
     10 H         140.9442  136.2098  163.2515 H       1  UNL1        0.1236
     11 C         139.4240  137.5630  163.0734 C.3     1  UNL1        0.1152
     12 C         139.0261  138.9775  162.7719 C.ar    1  UNL1        0.0765
     13 C         138.5990  139.3570  161.3849 C.ar    1  UNL1        0.0193
     14 C         138.2011  140.7714  161.0833 C.ar    1  UNL1        0.0411
     15 C         138.2302  141.8064  162.1687 C.ar    1  UNL1        0.1708
     16 C         138.6572  141.4269  163.5556 C.ar    1  UNL1        0.1682
     17 N         139.0552  140.0124  163.8572 N.ar    1  UNL1       -0.2304
     18 N         138.6863  142.4618  164.6410 N.am    1  UNL1       -0.2639
     19 C         138.2883  143.8763  164.3395 C.2     1  UNL1        0.2718
     20 O         138.3174  144.9112  165.4248 O.2     1  UNL1       -0.2707
     21 C         137.8613  144.2558  162.9525 C.3     1  UNL1        0.2898
     22 O         137.8322  143.2209  161.8671 O.3     1  UNL1       -0.4628
     23 H         138.9665  142.2128  165.5513 H       1  UNL1        0.1565
     24 C         145.5379  140.5503  164.0461 C.3     1  UNL1        0.0320
     25 C         145.5204  142.0074  163.6905 C.3     1  UNL1        0.0327
     26 C         144.1096  142.7240  159.4778 C.ar    1  UNL1        0.2247
     27 C         142.8040  143.4204  159.2324 C.ar    1  UNL1        0.0549
     28 C         141.9687  143.8780  160.3912 C.ar    1  UNL1        0.0019
     29 C         140.6630  144.5745  160.1457 C.3     1  UNL1        0.0328
     30 C         142.4389  143.6392  161.7953 C.ar    1  UNL1        0.0950
     31 N         141.6035  144.0968  162.9541 N.ar    1  UNL1       -0.2403
     32 C         142.0737  143.8580  164.3583 C.ar    1  UNL1        0.1281
     33 C         143.3794  143.1615  164.6038 C.ar    1  UNL1        0.1566
     34 F         143.8496  142.9227  166.0080 F       1  UNL1       -0.2028
     35 C         144.2148  142.7039  163.4450 C.ar    1  UNL1        0.0261
     36 C         143.7445  142.9427  162.0408 C.ar    1  UNL1        0.0999
     37 N         144.5799  142.4851  160.8820 N.ar    1  UNL1       -0.2104
     38 C         144.5577  141.0349  157.5553 C.3     1  UNL1        0.2542
     39 O         144.9450  142.2663  158.3191 O.3     1  UNL1       -0.4561
@<TRIPOS>BOND
     1    38    39    1
     2    39    26    1
     3    26    27   ar
     4    27    28   ar
     5    28    29    1
     6    28    30   ar
     7    30    31   ar
     8    31    32   ar
     9    32    33   ar
    10    33    34    1
    11    33    35   ar
    12    35    25    1
    13    25    24    1
    14    24     1    1
    15     1     2    1
    16     2     3    1
    17     3     4    1
    18     4     9    1
    19     9    11    1
    20    11    12    1
    21    12    13   ar
    22    13    14   ar
    23    14    15   ar
    24    15    16   ar
    25    16    17   ar
    26    16    18    1
    27    18    19   am
    28    19    20    2
    29    19    21    1
    30    21    22    1
    31     4     5    1
    32     5     6    1
    33     4     7    1
    34     7     8    1
    35    35    36   ar
    36    36    37   ar
    37    37    26   ar
    38    36    30   ar
    39     6     1    1
    40     8     1    1
    41    17    12   ar
    42    22    15    1
    43     9    10    1
    44    18    23    1
@<TRIPOS>MOLECULE
*****
 39 44 0 0 0
SMALL
GASTEIGER

@<TRIPOS>ATOM
      1 C         144.4661  142.8054  163.2041 C.3     1  UNL1        0.0932
      2 C         143.8500  143.0245  161.8541 C.3     1  UNL1        0.0286
      3 C         142.7693  144.0501  161.6804 C.3     1  UNL1        0.0193
      4 C         142.3046  144.8566  162.8567 C.3     1  UNL1        0.0700
      5 C         142.9206  144.6375  164.2067 C.3     1  UNL1        0.0193
      6 C         144.0014  143.6119  164.3804 C.3     1  UNL1        0.0286
      7 C         142.8996  144.3061  163.0009 C.3     1  UNL1        0.1562
      8 O         143.8769  143.3788  163.1580 O.3     1  UNL1       -0.3572
      9 N         141.2239  145.8822  162.6829 N.3     1  UNL1       -0.2926
     10 H         141.2353  146.1585  161.7012 H       1  UNL1        0.1236
     11 C         139.8030  145.5389  163.0197 C.3     1  UNL1        0.1152
     12 C         139.2792  144.1605  162.7451 C.ar    1  UNL1        0.0765
     13 C         138.9323  143.2491  163.8849 C.ar    1  UNL1        0.0193
     14 C         138.4084  141.8707  163.6104 C.ar    1  UNL1        0.0411
     15 C         138.2314  141.4035  162.1960 C.ar    1  UNL1        0.1708
     16 C         138.5783  142.3148  161.0562 C.ar    1  UNL1        0.1682
     17 N         139.1022  143.6933  161.3307 N.ar    1  UNL1       -0.2304
     18 N         138.4013  141.8477  159.6418 N.am    1  UNL1       -0.2639
     19 C         137.8775  140.4692  159.3672 C.2     1  UNL1        0.2718
     20 O         137.7005  140.0021  157.9529 O.2     1  UNL1       -0.2707
     21 C         137.5306  139.5578  160.5071 C.3     1  UNL1        0.2898
     22 O         137.7075  140.0250  161.9214 O.3     1  UNL1       -0.4628
     23 H         138.6290  142.4458  158.8937 H       1  UNL1        0.1565
     24 C         145.5468  141.7798  163.3778 C.3     1  UNL1        0.0320
     25 C         145.2029  140.4027  163.8630 C.3     1  UNL1        0.0327
     26 C         142.1710  140.3260  167.1874 C.ar    1  UNL1        0.2247
     27 C         140.8022  139.7641  166.9413 C.ar    1  UNL1        0.0549
     28 C         140.4440  139.2278  165.5870 C.ar    1  UNL1        0.0019
     29 C         139.0751  138.6658  165.3409 C.3     1  UNL1        0.0328
     30 C         141.4546  139.2533  164.4789 C.ar    1  UNL1        0.0950
     31 N         141.0964  138.7170  163.1246 N.ar    1  UNL1       -0.2403
     32 C         142.1070  138.7426  162.0165 C.ar    1  UNL1        0.1281
     33 C         143.4759  139.3045  162.2626 C.ar    1  UNL1        0.1566
     34 F         144.4865  139.3301  161.1545 F       1  UNL1       -0.2028
     35 C         143.8341  139.8408  163.6169 C.ar    1  UNL1        0.0261
     36 C         142.8234  139.8152  164.7250 C.ar    1  UNL1        0.0999
     37 N         143.1816  140.3515  166.0793 N.ar    1  UNL1       -0.2104
     38 C         142.8841  142.3105  168.7050 C.3     1  UNL1        0.2542
     39 O         142.5292  140.8623  168.5417 O.3     1  UNL1       -0.4561
@<TRIPOS>BOND
     1    38    39    1
     2    39    26    1
     3    26    27   ar
     4    27    28   ar
     5    28    29    1
     6    28    30   ar
     7    30    31   ar
     8    31    32   ar
     9    32    33   ar
    10    33    34    1
    11    33    35   ar
    12    35    25    1
    13    25    24    1
    14    24     1    1
    15     1     2    1
    16     2     3    1
    17     3     4    1
    18     4     9    1
    19     9    11    1
    20    11    12    1
    21    12    13   ar
    22    13    14   ar
    23    14    15   ar
    24    15    16   ar
    25    16    17   ar
    26    16    18    1
    27    18    19   am
    28    19    20    2
    29    19    21    1
    30    21    22    1
    31     4     5    1
    32     5     6    1
    33     4     7    1
    34     7     8    1
    35    35    36   ar
    36    36    37   ar
    37    37    26   ar
    38    36    30   ar
    39     6     1    1
    40     8     1    1
    41    17    12   ar
    42    22    15    1
    43     9    10    1
    44    18    23    1
@<TRIPOS>MOLECULE
*****
 39 44 0 0 0
SMALL
GASTEIGER

@<TRIPOS>ATOM
      1 C         139.8817  138.3065  164.1049 C.3     1  UNL1        0.0932
      2 C         139.1498  139.0170  165.2047 C.3     1  UNL1        0.0286
      3 C         138.1733  140.1064  164.8739 C.3     1  UNL1        0.0193
      4 C         137.9286  140.4854  163.4432 C.3     1  UNL1        0.0700
      5 C         138.6605  139.7748  162.3435 C.3     1  UNL1        0.0193
      6 C         139.6371  138.6854  162.6743 C.3     1  UNL1        0.0286
      7 C         138.4731  139.8820  163.5754 C.3     1  UNL1        0.1562
      8 O         139.3561  138.8969  163.8745 O.3     1  UNL1       -0.3572
      9 N         136.9520  141.5748  163.1124 N.3     1  UNL1       -0.2926
     10 H         136.1267  141.4158  163.6903 H       1  UNL1        0.1236
     11 C         137.3403  143.0118  163.2979 C.3     1  UNL1        0.1152
     12 C         138.3915  143.6239  162.4204 C.ar    1  UNL1        0.0765
     13 C         139.2902  144.6956  162.9626 C.ar    1  UNL1        0.0193
     14 C         140.3414  145.3078  162.0850 C.ar    1  UNL1        0.0411
     15 C         140.4940  144.8483  160.6653 C.ar    1  UNL1        0.1708
     16 C         139.5954  143.7767  160.1231 C.ar    1  UNL1        0.1682
     17 N         138.5441  143.1645  161.0007 N.ar    1  UNL1       -0.2304
     18 N         139.7480  143.3172  158.7034 N.am    1  UNL1       -0.2639
     19 C         140.7992  143.9294  157.8259 C.2     1  UNL1        0.2718
     20 O         140.9518  143.4699  156.4062 O.2     1  UNL1       -0.2707
     21 C         141.6980  145.0011  158.3681 C.3     1  UNL1        0.2898
     22 O         141.5454  145.4605  159.7878 O.3     1  UNL1       -0.4628
     23 H         139.1582  142.6139  158.3476 H       1  UNL1        0.1565
     24 C         140.8583  137.2170  164.4357 C.3     1  UNL1        0.0320
     25 C         142.2200  137.5643  164.9605 C.3     1  UNL1        0.0327
     26 C         142.4928  141.1475  167.6690 C.ar    1  UNL1        0.2247
     27 C         143.1830  142.3930  167.1977 C.ar    1  UNL1        0.0549
     28 C         143.7822  142.4442  165.8236 C.ar    1  UNL1        0.0019
     29 C         144.4724  143.6899  165.3523 C.3     1  UNL1        0.0328
     30 C         143.6913  141.2499  164.9207 C.ar    1  UNL1        0.0950
     31 N         144.2905  141.3011  163.5466 N.ar    1  UNL1       -0.2403
     32 C         144.1996  140.1067  162.6437 C.ar    1  UNL1        0.1281
     33 C         143.5094  138.8611  163.1150 C.ar    1  UNL1        0.1566
     34 F         143.4184  137.6667  162.2122 F       1  UNL1       -0.2028
     35 C         142.9101  138.8099  164.4892 C.ar    1  UNL1        0.0261
     36 C         143.0011  140.0043  165.3920 C.ar    1  UNL1        0.0999
     37 N         142.4019  139.9531  166.7662 N.ar    1  UNL1       -0.2104
     38 C         141.1970  139.8532  169.5118 C.3     1  UNL1        0.2542
     39 O         141.8935  141.0963  169.0432 O.3     1  UNL1       -0.4561
@<TRIPOS>BOND
     1    38    39    1
     2    39    26    1
     3    26    27   ar
     4    27    28   ar
     5    28    29    1
     6    28    30   ar
     7    30    31   ar
     8    31    32   ar
     9    32    33   ar
    10    33    34    1
    11    33    35   ar
    12    35    25    1
    13    25    24    1
    14    24     1    1
    15     1     2    1
    16     2     3    1
    17     3     4    1
    18     4     9    1
    19     9    11    1
    20    11    12    1
    21    12    13   ar
    22    13    14   ar
    23    14    15   ar
    24    15    16   ar
    25    16    17   ar
    26    16    18    1
    27    18    19   am
    28    19    20    2
    29    19    21    1
    30    21    22    1
    31     4     5    1
    32     5     6    1
    33     4     7    1
    34     7     8    1
    35    35    36   ar
    36    36    37   ar
    37    37    26   ar
    38    36    30   ar
    39     6     1    1
    40     8     1    1
    41    17    12   ar
    42    22    15    1
    43     9    10    1
    44    18    23    1
