@<TRIPOS>MOLECULE
*****
 43 48 0 0 0
SMALL
GASTEIGER

@<TRIPOS>ATOM
      1 C         143.3093  139.5732  164.7595 C.3     1  UNL1        0.0439
      2 C         140.7058  142.5631  164.9413 C.ar    1  UNL1        0.0833
      3 C         141.6370  141.5263  164.3864 C.ar    1  UNL1        0.0150
      4 C         142.3780  140.6100  165.3145 C.ar    1  UNL1       -0.0181
      5 C         142.1877  140.7305  166.7975 C.ar    1  UNL1        0.0104
      6 C         141.2565  141.7672  167.3523 C.ar    1  UNL1        0.0492
      7 C         140.5155  142.6835  166.4242 C.ar    1  UNL1        0.0336
      8 C         139.5747  146.5274  161.6420 C.3     1  UNL1        0.0540
      9 C         139.4449  145.3016  162.4966 C.ar    1  UNL1        0.0805
     10 C         138.2042  144.4773  162.6733 C.ar    1  UNL1        0.0312
     11 C         138.5256  143.3511  163.6105 C.ar    1  UNL1        0.0621
     12 C         137.5746  142.2839  164.0654 C.3     1  UNL1        0.0522
     13 N         139.9648  143.4794  164.0131 N.ar    1  UNL1       -0.2340
     14 N         140.5330  144.6848  163.3248 N.ar    1  UNL1       -0.1698
     15 N         141.0662  141.8877  168.8353 N.pl3   1  UNL1       -0.3027
     16 C         141.7768  140.9458  169.7616 C.3     1  UNL1        0.1231
     17 C         141.5865  141.0662  171.2446 C.3     1  UNL1        0.1636
     18 O         140.6856  142.1286  171.8014 O.3     1  UNL1       -0.3501
     19 C         139.9751  143.0704  170.8751 C.3     1  UNL1        0.1636
     20 C         140.1653  142.9500  169.3921 C.3     1  UNL1        0.1231
     21 C         144.7492  139.9134  164.5129 C.3     1  UNL1        0.0474
     22 C         145.1441  140.6426  163.2630 C.2     1  UNL1        0.0507
     23 O         146.2165  141.6904  163.3130 O.co2   1  UNL1       -0.5492
     24 O         144.4669  140.3240  161.9631 O.co2   1  UNL1       -0.5492
     25 C         142.8005  138.1962  164.4511 C.3     1  UNL1        0.0768
     26 N         141.3731  138.0000  164.0341 N.3     1  UNL1       -0.2724
     27 C         140.2532  137.5323  164.9157 C.3     1  UNL1        0.0721
     28 C         139.0029  137.4802  164.0887 C.3     1  UNL1        0.0187
     29 C         139.3500  137.9157  162.6959 C.3     1  UNL1        0.0178
     30 C         140.8149  138.2369  162.6622 C.3     1  UNL1        0.0721
     31 C         138.3992  138.0129  161.5398 C.3     1  UNL1        0.0077
     32 C         137.6939  139.3058  161.2556 C.3     1  UNL1        0.0459
     33 C         138.3964  140.3924  160.4966 C.ar    1  UNL1        0.0603
     34 C         137.9193  140.7804  159.1284 C.ar    1  UNL1        0.0145
     35 C         138.6217  141.8669  158.3694 C.ar    1  UNL1       -0.0003
     36 C         139.8013  142.5653  158.9785 C.ar    1  UNL1        0.0092
     37 C         140.2783  142.1773  160.3466 C.ar    1  UNL1        0.1240
     38 N         139.5759  141.0907  161.1057 N.ar    1  UNL1       -0.2356
     39 N         141.4578  142.8756  160.9558 N.pl3   1  UNL1       -0.3184
     40 C         142.1602  143.9621  160.1967 C.3     1  UNL1        0.0885
     41 C         141.6832  144.3502  158.8286 C.3     1  UNL1        0.0260
     42 C         140.5037  143.6518  158.2195 C.3     1  UNL1        0.0309
     43 H         141.7709  142.6209  161.8537 H       1  UNL1        0.1482
@<TRIPOS>UNITY_ATOM_ATTR
23 1
charge -1
@<TRIPOS>BOND
     1     8     9    1
     2     9    10   ar
     3    10    11   ar
     4    11    12    1
     5    11    13   ar
     6    13     2    1
     7     2     3   ar
     8     3     4   ar
     9     4     1    1
    10     1    21    1
    11    21    22    1
    12    22    23   ar
    13    22    24   ar
    14     1    25    1
    15    25    26    1
    16    26    27    1
    17    27    28    1
    18    28    29    1
    19    29    31    1
    20    31    32    1
    21    32    33    1
    22    33    34   ar
    23    34    35   ar
    24    35    36   ar
    25    36    37   ar
    26    37    38   ar
    27    37    39    1
    28    39    40    1
    29    40    41    1
    30    41    42    1
    31    29    30    1
    32     4     5   ar
    33     5     6   ar
    34     6    15    1
    35    15    16    1
    36    16    17    1
    37    17    18    1
    38    18    19    1
    39    19    20    1
    40     6     7   ar
    41    13    14   ar
    42    14     9   ar
    43     7     2   ar
    44    30    26    1
    45    20    15    1
    46    38    33   ar
    47    42    36    1
    48    39    43    1
@<TRIPOS>MOLECULE
*****
 43 48 0 0 0
SMALL
GASTEIGER

@<TRIPOS>ATOM
      1 C         140.5582  139.0561  159.7443 C.3     1  UNL1        0.0439
      2 C         139.8222  142.7056  161.1189 C.ar    1  UNL1        0.0833
      3 C         140.2334  141.2637  161.0750 C.ar    1  UNL1        0.0150
      4 C         140.1470  140.4980  159.7881 C.ar    1  UNL1       -0.0181
      5 C         139.6494  141.1742  158.5450 C.ar    1  UNL1        0.0104
      6 C         139.2382  142.6160  158.5889 C.ar    1  UNL1        0.0492
      7 C         139.3246  143.3818  159.8759 C.ar    1  UNL1        0.0336
      8 C         138.5254  144.9959  165.6964 C.3     1  UNL1        0.0540
      9 C         139.3125  144.5241  164.5099 C.ar    1  UNL1        0.0805
     10 C         140.7705  144.7752  164.2626 C.ar    1  UNL1        0.0312
     11 C         141.1388  144.1246  162.9623 C.ar    1  UNL1        0.0621
     12 C         142.4989  144.1268  162.3293 C.3     1  UNL1        0.0522
     13 N         139.9086  143.4713  162.4059 N.ar    1  UNL1       -0.2340
     14 N         138.7798  143.7182  163.3623 N.ar    1  UNL1       -0.1698
     15 N         138.7407  143.2922  157.3458 N.pl3   1  UNL1       -0.3027
     16 C         139.5216  144.4220  156.7428 C.3     1  UNL1        0.1231
     17 C         139.0240  145.0982  155.4998 C.3     1  UNL1        0.1636
     18 O         137.7455  144.6445  154.8596 O.3     1  UNL1       -0.3501
     19 C         136.9647  143.5147  155.4626 C.3     1  UNL1        0.1636
     20 C         137.4622  142.8384  156.7057 C.3     1  UNL1        0.1231
     21 C         141.7941  138.6510  158.9970 C.3     1  UNL1        0.0474
     22 C         143.1153  139.2733  159.3393 C.2     1  UNL1        0.0507
     23 O         143.4521  139.5798  160.7686 O.co2   1  UNL1       -0.5492
     24 O         144.0996  139.5892  158.2525 O.co2   1  UNL1       -0.5492
     25 C         139.7334  138.0193  160.4477 C.3     1  UNL1        0.0768
     26 N         139.9108  137.7918  161.9197 N.3     1  UNL1       -0.2724
     27 C         141.2145  137.5651  162.6261 C.3     1  UNL1        0.0721
     28 C         140.9250  137.3843  164.0867 C.3     1  UNL1        0.0187
     29 C         139.4424  137.4993  164.2831 C.3     1  UNL1        0.0178
     30 C         138.8156  137.7511  162.9438 C.3     1  UNL1        0.0721
     31 C         138.7145  137.3828  165.5894 C.3     1  UNL1        0.0077
     32 C         138.0406  138.5847  166.1821 C.3     1  UNL1        0.0459
     33 C         138.8580  139.6475  166.8547 C.ar    1  UNL1        0.0603
     34 C         139.5365  140.7037  166.0336 C.ar    1  UNL1        0.0145
     35 C         140.3539  141.7665  166.7061 C.ar    1  UNL1       -0.0003
     36 C         140.4929  141.7731  168.1996 C.ar    1  UNL1        0.0092
     37 C         139.8145  140.7169  169.0207 C.ar    1  UNL1        0.1240
     38 N         138.9970  139.6541  168.3482 N.ar    1  UNL1       -0.2356
     39 N         139.9535  140.7235  170.5142 N.pl3   1  UNL1       -0.3184
     40 C         140.7709  141.7863  171.1866 C.3     1  UNL1        0.0885
     41 C         141.4494  142.8425  170.3656 C.3     1  UNL1        0.0260
     42 C         141.3104  142.8359  168.8721 C.3     1  UNL1        0.0309
     43 H         139.5082  140.0302  171.0531 H       1  UNL1        0.1482
@<TRIPOS>UNITY_ATOM_ATTR
23 1
charge -1
@<TRIPOS>BOND
     1     8     9    1
     2     9    10   ar
     3    10    11   ar
     4    11    12    1
     5    11    13   ar
     6    13     2    1
     7     2     3   ar
     8     3     4   ar
     9     4     1    1
    10     1    21    1
    11    21    22    1
    12    22    23   ar
    13    22    24   ar
    14     1    25    1
    15    25    26    1
    16    26    27    1
    17    27    28    1
    18    28    29    1
    19    29    31    1
    20    31    32    1
    21    32    33    1
    22    33    34   ar
    23    34    35   ar
    24    35    36   ar
    25    36    37   ar
    26    37    38   ar
    27    37    39    1
    28    39    40    1
    29    40    41    1
    30    41    42    1
    31    29    30    1
    32     4     5   ar
    33     5     6   ar
    34     6    15    1
    35    15    16    1
    36    16    17    1
    37    17    18    1
    38    18    19    1
    39    19    20    1
    40     6     7   ar
    41    13    14   ar
    42    14     9   ar
    43     7     2   ar
    44    30    26    1
    45    20    15    1
    46    38    33   ar
    47    42    36    1
    48    39    43    1
@<TRIPOS>MOLECULE
*****
 43 48 0 0 0
SMALL
GASTEIGER

@<TRIPOS>ATOM
      1 C         139.1428  138.7793  165.4246 C.3     1  UNL1        0.0439
      2 C         140.2906  142.4401  164.4086 C.ar    1  UNL1        0.0833
      3 C         139.6723  141.0757  164.3306 C.ar    1  UNL1        0.0150
      4 C         139.7612  140.1438  165.5027 C.ar    1  UNL1       -0.0181
      5 C         140.4684  140.5763  166.7527 C.ar    1  UNL1        0.0104
      6 C         141.0868  141.9406  166.8308 C.ar    1  UNL1        0.0492
      7 C         140.9979  142.8725  165.6587 C.ar    1  UNL1        0.0336
      8 C         141.0079  144.5984  159.6434 C.3     1  UNL1        0.0540
      9 C         140.5314  144.3641  161.0462 C.ar    1  UNL1        0.0805
     10 C         139.5984  145.2479  161.8198 C.ar    1  UNL1        0.0312
     11 C         139.3947  144.6347  163.1734 C.ar    1  UNL1        0.0621
     12 C         138.5348  145.1874  164.2714 C.3     1  UNL1        0.0522
     13 N         140.2017  143.3720  163.2366 N.ar    1  UNL1       -0.2340
     14 N         140.9043  143.2046  161.9220 N.ar    1  UNL1       -0.1698
     15 N         141.7940  142.3731  168.0808 N.pl3   1  UNL1       -0.3027
     16 C         143.2460  142.0483  168.2717 C.3     1  UNL1        0.1231
     17 C         143.9532  142.4808  169.5218 C.3     1  UNL1        0.1636
     18 O         143.2085  143.2381  170.5811 O.3     1  UNL1       -0.3501
     19 C         141.7567  143.5629  170.3902 C.3     1  UNL1        0.1636
     20 C         141.0493  143.1304  169.1402 C.3     1  UNL1        0.1231
     21 C         137.7499  138.5568  165.9349 C.3     1  UNL1        0.0474
     22 C         137.5352  138.0180  167.3183 C.2     1  UNL1        0.0507
     23 O         137.1692  136.5764  167.5132 O.co2   1  UNL1       -0.5492
     24 O         137.6864  138.9207  168.5066 O.co2   1  UNL1       -0.5492
     25 C         139.9173  137.6375  164.8361 C.3     1  UNL1        0.0768
     26 N         140.5739  137.7883  163.4959 N.3     1  UNL1       -0.2724
     27 C         139.8740  138.0536  162.1960 C.3     1  UNL1        0.0721
     28 C         140.9133  138.1295  161.1170 C.3     1  UNL1        0.0187
     29 C         142.2555  137.9112  161.7501 C.3     1  UNL1        0.0178
     30 C         142.0457  137.7003  163.2204 C.3     1  UNL1        0.0721
     31 C         143.5756  137.9048  161.0380 C.3     1  UNL1        0.0077
     32 C         144.3044  139.1937  160.7979 C.3     1  UNL1        0.0459
     33 C         144.3539  140.2389  161.8728 C.ar    1  UNL1        0.0603
     34 C         144.7278  139.8564  163.2742 C.ar    1  UNL1        0.0145
     35 C         144.7773  140.9014  164.3490 C.ar    1  UNL1       -0.0003
     36 C         144.4528  142.3291  164.0225 C.ar    1  UNL1        0.0092
     37 C         144.0788  142.7116  162.6211 C.ar    1  UNL1        0.1240
     38 N         144.0293  141.6664  161.5463 N.ar    1  UNL1       -0.2356
     39 N         143.7543  144.1392  162.2946 N.pl3   1  UNL1       -0.3184
     40 C         143.8038  145.1843  163.3695 C.3     1  UNL1        0.0885
     41 C         144.1777  144.8017  164.7708 C.3     1  UNL1        0.0260
     42 C         144.5023  143.3742  165.0973 C.3     1  UNL1        0.0309
     43 H         143.5088  144.3902  161.3748 H       1  UNL1        0.1482
@<TRIPOS>UNITY_ATOM_ATTR
23 1
charge -1
@<TRIPOS>BOND
     1     8     9    1
     2     9    10   ar
     3    10    11   ar
     4    11    12    1
     5    11    13   ar
     6    13     2    1
     7     2     3   ar
     8     3     4   ar
     9     4     1    1
    10     1    21    1
    11    21    22    1
    12    22    23   ar
    13    22    24   ar
    14     1    25    1
    15    25    26    1
    16    26    27    1
    17    27    28    1
    18    28    29    1
    19    29    31    1
    20    31    32    1
    21    32    33    1
    22    33    34   ar
    23    34    35   ar
    24    35    36   ar
    25    36    37   ar
    26    37    38   ar
    27    37    39    1
    28    39    40    1
    29    40    41    1
    30    41    42    1
    31    29    30    1
    32     4     5   ar
    33     5     6   ar
    34     6    15    1
    35    15    16    1
    36    16    17    1
    37    17    18    1
    38    18    19    1
    39    19    20    1
    40     6     7   ar
    41    13    14   ar
    42    14     9   ar
    43     7     2   ar
    44    30    26    1
    45    20    15    1
    46    38    33   ar
    47    42    36    1
    48    39    43    1
@<TRIPOS>MOLECULE
*****
 43 48 0 0 0
SMALL
GASTEIGER

@<TRIPOS>ATOM
      1 C         144.1986  142.3441  164.8634 C.3     1  UNL1        0.0439
      2 C         140.4162  141.1594  165.0658 C.ar    1  UNL1        0.0833
      3 C         141.7604  141.5203  164.5065 C.ar    1  UNL1        0.0150
      4 C         142.8543  141.9831  165.4227 C.ar    1  UNL1       -0.0181
      5 C         142.6039  142.0850  166.8981 C.ar    1  UNL1        0.0104
      6 C         141.2596  141.7241  167.4574 C.ar    1  UNL1        0.0492
      7 C         140.1658  141.2613  166.5412 C.ar    1  UNL1        0.0336
      8 C         137.6266  138.2817  161.6281 C.3     1  UNL1        0.0540
      9 C         138.0402  139.3738  162.5695 C.ar    1  UNL1        0.0805
     10 C         137.2382  140.5949  162.9100 C.ar    1  UNL1        0.0312
     11 C         138.0307  141.4123  163.8866 C.ar    1  UNL1        0.0621
     12 C         137.6061  142.7167  164.4937 C.3     1  UNL1        0.0522
     13 N         139.3224  140.6966  164.1496 N.ar    1  UNL1       -0.2340
     14 N         139.3283  139.4367  163.3356 N.ar    1  UNL1       -0.1698
     15 N         141.0092  141.8260  168.9328 N.pl3   1  UNL1       -0.3027
     16 C         141.6326  140.8341  169.8696 C.3     1  UNL1        0.1231
     17 C         141.3822  140.9361  171.3450 C.3     1  UNL1        0.1636
     18 O         140.5083  142.0299  171.8837 O.3     1  UNL1       -0.3501
     19 C         139.8850  143.0217  170.9469 C.3     1  UNL1        0.1636
     20 C         140.1354  142.9199  169.4715 C.3     1  UNL1        0.1231
     21 C         144.6361  143.7784  164.8290 C.3     1  UNL1        0.0474
     22 C         144.0666  144.7118  163.8021 C.2     1  UNL1        0.0507
     23 O         143.0967  145.7792  164.2145 O.co2   1  UNL1       -0.5492
     24 O         144.4671  144.5778  162.3628 O.co2   1  UNL1       -0.5492
     25 C         145.1053  141.2706  164.3385 C.3     1  UNL1        0.0768
     26 N         144.6765  140.4308  163.1720 N.3     1  UNL1       -0.2724
     27 C         144.2778  138.9856  163.2251 C.3     1  UNL1        0.0721
     28 C         143.9260  138.5504  161.8334 C.3     1  UNL1        0.0187
     29 C         144.1072  139.7264  160.9202 C.3     1  UNL1        0.0178
     30 C         144.5710  140.8886  161.7475 C.3     1  UNL1        0.0721
     31 C         143.8668  139.7383  159.4397 C.3     1  UNL1        0.0077
     32 C         143.2314  140.9330  158.7926 C.3     1  UNL1        0.0459
     33 C         142.1569  141.6930  159.5124 C.ar    1  UNL1        0.0603
     34 C         140.8051  141.0740  159.7111 C.ar    1  UNL1        0.0145
     35 C         139.7307  141.8340  160.4309 C.ar    1  UNL1       -0.0003
     36 C         140.0081  143.2130  160.9519 C.ar    1  UNL1        0.0092
     37 C         141.3599  143.8320  160.7532 C.ar    1  UNL1        0.1240
     38 N         142.4343  143.0720  160.0334 N.ar    1  UNL1       -0.2356
     39 N         141.6373  145.2109  161.2743 N.pl3   1  UNL1       -0.3184
     40 C         140.5629  145.9709  161.9940 C.3     1  UNL1        0.0885
     41 C         139.2111  145.3519  162.1927 C.3     1  UNL1        0.0260
     42 C         138.9337  143.9729  161.6717 C.3     1  UNL1        0.0309
     43 H         142.5245  145.6172  161.1438 H       1  UNL1        0.1482
@<TRIPOS>UNITY_ATOM_ATTR
23 1
charge -1
@<TRIPOS>BOND
     1     8     9    1
     2     9    10   ar
     3    10    11   ar
     4    11    12    1
     5    11    13   ar
     6    13     2    1
     7     2     3   ar
     8     3     4   ar
     9     4     1    1
    10     1    21    1
    11    21    22    1
    12    22    23   ar
    13    22    24   ar
    14     1    25    1
    15    25    26    1
    16    26    27    1
    17    27    28    1
    18    28    29    1
    19    29    31    1
    20    31    32    1
    21    32    33    1
    22    33    34   ar
    23    34    35   ar
    24    35    36   ar
    25    36    37   ar
    26    37    38   ar
    27    37    39    1
    28    39    40    1
    29    40    41    1
    30    41    42    1
    31    29    30    1
    32     4     5   ar
    33     5     6   ar
    34     6    15    1
    35    15    16    1
    36    16    17    1
    37    17    18    1
    38    18    19    1
    39    19    20    1
    40     6     7   ar
    41    13    14   ar
    42    14     9   ar
    43     7     2   ar
    44    30    26    1
    45    20    15    1
    46    38    33   ar
    47    42    36    1
    48    39    43    1
@<TRIPOS>MOLECULE
*****
 43 48 0 0 0
SMALL
GASTEIGER

@<TRIPOS>ATOM
      1 C         139.0470  140.1577  160.2439 C.3     1  UNL1        0.0439
      2 C         142.3868  138.6152  158.7549 C.ar    1  UNL1        0.0833
      3 C         140.9452  139.0051  158.8952 C.ar    1  UNL1        0.0150
      4 C         140.4887  139.7677  160.1036 C.ar    1  UNL1       -0.0181
      5 C         141.4738  140.1404  161.1716 C.ar    1  UNL1        0.0104
      6 C         142.9154  139.7504  161.0312 C.ar    1  UNL1        0.0492
      7 C         143.3719  138.9878  159.8229 C.ar    1  UNL1        0.0336
      8 C         143.6323  134.6572  155.4894 C.3     1  UNL1        0.0540
      9 C         143.4157  136.0333  156.0455 C.ar    1  UNL1        0.0805
     10 C         143.6756  137.3250  155.3285 C.ar    1  UNL1        0.0312
     11 C         143.3218  138.4493  156.2562 C.ar    1  UNL1        0.0621
     12 C         143.4279  139.9136  155.9477 C.3     1  UNL1        0.0522
     13 N         142.8433  137.8526  157.5465 N.ar    1  UNL1       -0.2340
     14 N         142.9013  136.3595  157.4164 N.ar    1  UNL1       -0.1698
     15 N         143.9006  140.1231  162.0992 N.pl3   1  UNL1       -0.3027
     16 C         144.6444  141.4228  162.0130 C.3     1  UNL1        0.1231
     17 C         145.6295  141.7955  163.0810 C.3     1  UNL1        0.1636
     18 O         145.8709  140.8684  164.2353 O.3     1  UNL1       -0.3501
     19 C         145.1271  139.5687  164.3215 C.3     1  UNL1        0.1636
     20 C         144.1419  139.1960  163.2535 C.3     1  UNL1        0.1231
     21 C         138.5540  141.4383  159.6382 C.3     1  UNL1        0.0474
     22 C         138.8264  142.7452  160.3221 C.2     1  UNL1        0.0507
     23 O         139.2819  143.9297  159.5223 O.co2   1  UNL1       -0.5492
     24 O         138.6434  142.8677  161.8058 O.co2   1  UNL1       -0.5492
     25 C         138.0984  139.2669  160.9901 C.3     1  UNL1        0.0768
     26 N         138.3680  138.9177  162.4237 N.3     1  UNL1       -0.2724
     27 C         139.0339  137.6671  162.9164 C.3     1  UNL1        0.0721
     28 C         139.0965  137.7342  164.4136 C.3     1  UNL1        0.0187
     29 C         138.4693  139.0263  164.8463 C.3     1  UNL1        0.0178
     30 C         138.0191  139.7577  163.6165 C.3     1  UNL1        0.0721
     31 C         138.3188  139.5031  166.2604 C.3     1  UNL1        0.0077
     32 C         139.5007  140.0676  166.9913 C.3     1  UNL1        0.0459
     33 C         140.3953  141.0637  166.3148 C.ar    1  UNL1        0.0603
     34 C         141.8853  140.9217  166.4129 C.ar    1  UNL1        0.0145
     35 C         142.7798  141.9177  165.7364 C.ar    1  UNL1       -0.0003
     36 C         142.1843  143.0559  164.9617 C.ar    1  UNL1        0.0092
     37 C         140.6943  143.1979  164.8636 C.ar    1  UNL1        0.1240
     38 N         139.7997  142.2018  165.5401 N.ar    1  UNL1       -0.2356
     39 N         140.0987  144.3359  164.0889 N.pl3   1  UNL1       -0.3184
     40 C         140.9933  145.3320  163.4124 C.3     1  UNL1        0.0885
     41 C         142.4833  145.1900  163.5106 C.3     1  UNL1        0.0260
     42 C         143.0788  144.0519  164.2852 C.3     1  UNL1        0.0309
     43 H         139.1208  144.4291  164.0245 H       1  UNL1        0.1482
@<TRIPOS>UNITY_ATOM_ATTR
23 1
charge -1
@<TRIPOS>BOND
     1     8     9    1
     2     9    10   ar
     3    10    11   ar
     4    11    12    1
     5    11    13   ar
     6    13     2    1
     7     2     3   ar
     8     3     4   ar
     9     4     1    1
    10     1    21    1
    11    21    22    1
    12    22    23   ar
    13    22    24   ar
    14     1    25    1
    15    25    26    1
    16    26    27    1
    17    27    28    1
    18    28    29    1
    19    29    31    1
    20    31    32    1
    21    32    33    1
    22    33    34   ar
    23    34    35   ar
    24    35    36   ar
    25    36    37   ar
    26    37    38   ar
    27    37    39    1
    28    39    40    1
    29    40    41    1
    30    41    42    1
    31    29    30    1
    32     4     5   ar
    33     5     6   ar
    34     6    15    1
    35    15    16    1
    36    16    17    1
    37    17    18    1
    38    18    19    1
    39    19    20    1
    40     6     7   ar
    41    13    14   ar
    42    14     9   ar
    43     7     2   ar
    44    30    26    1
    45    20    15    1
    46    38    33   ar
    47    42    36    1
    48    39    43    1
@<TRIPOS>MOLECULE
*****
 43 48 0 0 0
SMALL
GASTEIGER

@<TRIPOS>ATOM
      1 C         140.8249  139.0622  159.9907 C.3     1  UNL1        0.0439
      2 C         143.2010  142.0252  161.1418 C.ar    1  UNL1        0.0833
      3 C         142.1005  141.0060  161.1503 C.ar    1  UNL1        0.0150
      4 C         141.9255  140.0814  159.9822 C.ar    1  UNL1       -0.0181
      5 C         142.8509  140.1761  158.8055 C.ar    1  UNL1        0.0104
      6 C         143.9514  141.1953  158.7970 C.ar    1  UNL1        0.0492
      7 C         144.1265  142.1199  159.9652 C.ar    1  UNL1        0.0336
      8 C         144.8524  144.0786  165.7176 C.3     1  UNL1        0.0540
      9 C         144.1351  143.8936  164.4132 C.ar    1  UNL1        0.0805
     10 C         143.1558  144.8513  163.8020 C.ar    1  UNL1        0.0312
     11 C         142.6867  144.2680  162.5021 C.ar    1  UNL1        0.0621
     12 C         141.7012  144.8932  161.5597 C.3     1  UNL1        0.0522
     13 N         143.3761  142.9497  162.3100 N.ar    1  UNL1       -0.2340
     14 N         144.2712  142.7183  163.4911 N.ar    1  UNL1       -0.1698
     15 N         144.8768  141.2900  157.6204 N.pl3   1  UNL1       -0.3027
     16 C         145.9329  142.3545  157.5805 C.3     1  UNL1        0.1231
     17 C         146.8584  142.4491  156.4038 C.3     1  UNL1        0.1636
     18 O         146.7278  141.4793  155.2669 O.3     1  UNL1       -0.3501
     19 C         145.6718  140.4148  155.3068 C.3     1  UNL1        0.1636
     20 C         144.7462  140.3201  156.4835 C.3     1  UNL1        0.1231
     21 C         139.5377  139.3422  159.2733 C.3     1  UNL1        0.0474
     22 C         138.6609  140.4743  159.7202 C.2     1  UNL1        0.0507
     23 O         138.4081  140.6951  161.1822 O.co2   1  UNL1       -0.5492
     24 O         138.0368  141.3854  158.7051 O.co2   1  UNL1       -0.5492
     25 C         141.0115  137.7629  160.7167 C.3     1  UNL1        0.0768
     26 N         140.7578  137.6855  162.1931 N.3     1  UNL1       -0.2724
     27 C         141.8044  137.6526  163.2671 C.3     1  UNL1        0.0721
     28 C         141.1063  137.5742  164.5924 C.3     1  UNL1        0.0187
     29 C         139.6282  137.5587  164.3375 C.3     1  UNL1        0.0178
     30 C         139.4128  137.6275  162.8546 C.3     1  UNL1        0.0721
     31 C         138.5541  137.4870  165.3821 C.3     1  UNL1        0.0077
     32 C         138.4120  138.5900  166.3886 C.3     1  UNL1        0.0459
     33 C         138.7178  140.0057  165.9981 C.ar    1  UNL1        0.0603
     34 C         139.7687  140.7778  166.7394 C.ar    1  UNL1        0.0145
     35 C         140.0745  142.1934  166.3490 C.ar    1  UNL1       -0.0003
     36 C         139.3294  142.8370  165.2173 C.ar    1  UNL1        0.0092
     37 C         138.2785  142.0649  164.4760 C.ar    1  UNL1        0.1240
     38 N         137.9727  140.6492  164.8665 N.ar    1  UNL1       -0.2356
     39 N         137.5334  142.7084  163.3444 N.pl3   1  UNL1       -0.3184
     40 C         137.8392  144.1240  162.9540 C.3     1  UNL1        0.0885
     41 C         138.8901  144.8961  163.6952 C.3     1  UNL1        0.0260
     42 C         139.6352  144.2526  164.8269 C.3     1  UNL1        0.0309
     43 H         136.8436  142.2016  162.8579 H       1  UNL1        0.1482
@<TRIPOS>UNITY_ATOM_ATTR
23 1
charge -1
@<TRIPOS>BOND
     1     8     9    1
     2     9    10   ar
     3    10    11   ar
     4    11    12    1
     5    11    13   ar
     6    13     2    1
     7     2     3   ar
     8     3     4   ar
     9     4     1    1
    10     1    21    1
    11    21    22    1
    12    22    23   ar
    13    22    24   ar
    14     1    25    1
    15    25    26    1
    16    26    27    1
    17    27    28    1
    18    28    29    1
    19    29    31    1
    20    31    32    1
    21    32    33    1
    22    33    34   ar
    23    34    35   ar
    24    35    36   ar
    25    36    37   ar
    26    37    38   ar
    27    37    39    1
    28    39    40    1
    29    40    41    1
    30    41    42    1
    31    29    30    1
    32     4     5   ar
    33     5     6   ar
    34     6    15    1
    35    15    16    1
    36    16    17    1
    37    17    18    1
    38    18    19    1
    39    19    20    1
    40     6     7   ar
    41    13    14   ar
    42    14     9   ar
    43     7     2   ar
    44    30    26    1
    45    20    15    1
    46    38    33   ar
    47    42    36    1
    48    39    43    1
@<TRIPOS>MOLECULE
*****
 43 48 0 0 0
SMALL
GASTEIGER

@<TRIPOS>ATOM
      1 C         143.7368  143.2404  164.7337 C.3     1  UNL1        0.0439
      2 C         140.8750  140.4935  164.8566 C.ar    1  UNL1        0.0833
      3 C         141.9078  141.4414  164.3230 C.ar    1  UNL1        0.0150
      4 C         142.7039  142.2925  165.2674 C.ar    1  UNL1       -0.0181
      5 C         142.4670  142.1959  166.7454 C.ar    1  UNL1        0.0104
      6 C         141.4341  141.2480  167.2790 C.ar    1  UNL1        0.0492
      7 C         140.6381  140.3969  166.3346 C.ar    1  UNL1        0.0336
      8 C         137.3356  138.9496  161.2552 C.3     1  UNL1        0.0540
      9 C         138.4521  138.9327  162.2568 C.ar    1  UNL1        0.0805
     10 C         139.2560  137.7325  162.6609 C.ar    1  UNL1        0.0312
     11 C         140.2614  138.1711  163.6840 C.ar    1  UNL1        0.0621
     12 C         141.2720  137.2927  164.3603 C.3     1  UNL1        0.0522
     13 N         140.0789  139.6424  163.9121 N.ar    1  UNL1       -0.2340
     14 N         138.9608  140.1131  163.0301 N.ar    1  UNL1       -0.1698
     15 N         141.1972  141.1514  168.7570 N.pl3   1  UNL1       -0.3027
     16 C         141.9256  142.0678  169.6948 C.3     1  UNL1        0.1231
     17 C         141.6888  141.9711  171.1728 C.3     1  UNL1        0.1636
     18 O         140.7234  140.9580  171.7131 O.3     1  UNL1       -0.3501
     19 C         139.9951  140.0416  170.7753 C.3     1  UNL1        0.1636
     20 C         140.2319  140.1382  169.2972 C.3     1  UNL1        0.1231
     21 C         145.1635  142.7972  164.5997 C.3     1  UNL1        0.0474
     22 C         145.5068  141.6291  163.7234 C.2     1  UNL1        0.0507
     23 O         145.8231  141.8468  162.2733 O.co2   1  UNL1       -0.5492
     24 O         145.5338  140.2435  164.2972 O.co2   1  UNL1       -0.5492
     25 C         143.3429  144.6315  164.3341 C.3     1  UNL1        0.0768
     26 N         142.2525  144.8419  163.3258 N.3     1  UNL1       -0.2724
     27 C         140.8910  145.4068  163.6043 C.3     1  UNL1        0.0721
     28 C         140.1291  145.4382  162.3126 C.3     1  UNL1        0.0187
     29 C         141.0196  144.8928  161.2358 C.3     1  UNL1        0.0178
     30 C         142.3319  144.5242  161.8620 C.3     1  UNL1        0.0721
     31 C         140.6608  144.7424  159.7872 C.3     1  UNL1        0.0077
     32 C         139.8295  143.5776  159.3375 C.3     1  UNL1        0.0459
     33 C         140.3470  142.1792  159.5011 C.ar    1  UNL1        0.0603
     34 C         139.6095  141.0293  158.8815 C.ar    1  UNL1        0.0145
     35 C         140.1270  139.6310  159.0451 C.ar    1  UNL1       -0.0003
     36 C         141.3820  139.3824  159.8283 C.ar    1  UNL1        0.0092
     37 C         142.1194  140.5323  160.4479 C.ar    1  UNL1        0.1240
     38 N         141.6019  141.9307  160.2843 N.ar    1  UNL1       -0.2356
     39 N         143.3743  140.2838  161.2311 N.pl3   1  UNL1       -0.3184
     40 C         143.8918  138.8855  161.3947 C.3     1  UNL1        0.0885
     41 C         143.1543  137.7356  160.7751 C.3     1  UNL1        0.0260
     42 C         141.8994  137.9841  159.9919 C.3     1  UNL1        0.0309
     43 H         143.8584  141.0386  161.6378 H       1  UNL1        0.1482
@<TRIPOS>UNITY_ATOM_ATTR
23 1
charge -1
@<TRIPOS>BOND
     1     8     9    1
     2     9    10   ar
     3    10    11   ar
     4    11    12    1
     5    11    13   ar
     6    13     2    1
     7     2     3   ar
     8     3     4   ar
     9     4     1    1
    10     1    21    1
    11    21    22    1
    12    22    23   ar
    13    22    24   ar
    14     1    25    1
    15    25    26    1
    16    26    27    1
    17    27    28    1
    18    28    29    1
    19    29    31    1
    20    31    32    1
    21    32    33    1
    22    33    34   ar
    23    34    35   ar
    24    35    36   ar
    25    36    37   ar
    26    37    38   ar
    27    37    39    1
    28    39    40    1
    29    40    41    1
    30    41    42    1
    31    29    30    1
    32     4     5   ar
    33     5     6   ar
    34     6    15    1
    35    15    16    1
    36    16    17    1
    37    17    18    1
    38    18    19    1
    39    19    20    1
    40     6     7   ar
    41    13    14   ar
    42    14     9   ar
    43     7     2   ar
    44    30    26    1
    45    20    15    1
    46    38    33   ar
    47    42    36    1
    48    39    43    1
@<TRIPOS>MOLECULE
*****
 43 48 0 0 0
SMALL
GASTEIGER

@<TRIPOS>ATOM
      1 C         143.6170  143.1690  164.6679 C.3     1  UNL1        0.0439
      2 C         140.7802  140.4022  164.8877 C.ar    1  UNL1        0.0833
      3 C         141.7981  141.3466  164.3202 C.ar    1  UNL1        0.0150
      4 C         142.5991  142.2245  165.2355 C.ar    1  UNL1       -0.0181
      5 C         142.3822  142.1581  166.7182 C.ar    1  UNL1        0.0104
      6 C         141.3643  141.2137  167.2857 C.ar    1  UNL1        0.0492
      7 C         140.5633  140.3358  166.3705 C.ar    1  UNL1        0.0336
      8 C         137.2834  138.7693  161.2841 C.3     1  UNL1        0.0540
      9 C         138.3719  138.7737  162.3161 C.ar    1  UNL1        0.0805
     10 C         139.1214  137.5728  162.8122 C.ar    1  UNL1        0.0312
     11 C         140.1147  138.0367  163.8359 C.ar    1  UNL1        0.0621
     12 C         141.0751  137.1658  164.5906 C.3     1  UNL1        0.0522
     13 N         139.9792  139.5242  163.9725 N.ar    1  UNL1       -0.2340
     14 N         138.9022  139.9798  163.0333 N.ar    1  UNL1       -0.1698
     15 N         141.1475  141.1473  168.7684 N.pl3   1  UNL1       -0.3027
     16 C         141.8801  142.0899  169.6766 C.3     1  UNL1        0.1231
     17 C         141.6632  142.0235  171.1593 C.3     1  UNL1        0.1636
     18 O         140.7137  141.0144  171.7340 O.3     1  UNL1       -0.3501
     19 C         139.9811  140.0718  170.8259 C.3     1  UNL1        0.1636
     20 C         140.1979  140.1381  169.3431 C.3     1  UNL1        0.1231
     21 C         145.0601  142.7652  164.6019 C.3     1  UNL1        0.0474
     22 C         145.4794  141.6207  163.7277 C.2     1  UNL1        0.0507
     23 O         145.8261  141.8638  162.2887 O.co2   1  UNL1       -0.5492
     24 O         145.5522  140.2330  164.2925 O.co2   1  UNL1       -0.5492
     25 C         143.1917  144.5172  164.1663 C.3     1  UNL1        0.0768
     26 N         142.3551  144.6263  162.9261 N.3     1  UNL1       -0.2724
     27 C         141.0700  145.3886  162.7936 C.3     1  UNL1        0.0721
     28 C         140.5774  145.2257  161.3862 C.3     1  UNL1        0.0187
     29 C         141.5580  144.3629  160.6488 C.3     1  UNL1        0.0178
     30 C         142.6567  143.9924  161.6005 C.3     1  UNL1        0.0721
     31 C         141.4576  143.9440  159.2120 C.3     1  UNL1        0.0077
     32 C         140.2029  144.2176  158.4370 C.3     1  UNL1        0.0459
     33 C         140.2155  145.2157  157.3173 C.ar    1  UNL1        0.0603
     34 C         140.9891  144.9279  156.0648 C.ar    1  UNL1        0.0145
     35 C         141.0018  145.9259  154.9451 C.ar    1  UNL1       -0.0003
     36 C         140.2409  147.2118  155.0778 C.ar    1  UNL1        0.0092
     37 C         139.4673  147.4996  156.3303 C.ar    1  UNL1        0.1240
     38 N         139.4546  146.5015  157.4501 N.ar    1  UNL1       -0.2356
     39 N         138.7064  148.7854  156.4631 N.pl3   1  UNL1       -0.3184
     40 C         138.7191  149.7834  155.3434 C.3     1  UNL1        0.0885
     41 C         139.4927  149.4956  154.0909 C.3     1  UNL1        0.0260
     42 C         140.2536  148.2098  153.9581 C.3     1  UNL1        0.0309
     43 H         138.1987  148.9743  157.2852 H       1  UNL1        0.1482
@<TRIPOS>UNITY_ATOM_ATTR
23 1
charge -1
@<TRIPOS>BOND
     1     8     9    1
     2     9    10   ar
     3    10    11   ar
     4    11    12    1
     5    11    13   ar
     6    13     2    1
     7     2     3   ar
     8     3     4   ar
     9     4     1    1
    10     1    21    1
    11    21    22    1
    12    22    23   ar
    13    22    24   ar
    14     1    25    1
    15    25    26    1
    16    26    27    1
    17    27    28    1
    18    28    29    1
    19    29    31    1
    20    31    32    1
    21    32    33    1
    22    33    34   ar
    23    34    35   ar
    24    35    36   ar
    25    36    37   ar
    26    37    38   ar
    27    37    39    1
    28    39    40    1
    29    40    41    1
    30    41    42    1
    31    29    30    1
    32     4     5   ar
    33     5     6   ar
    34     6    15    1
    35    15    16    1
    36    16    17    1
    37    17    18    1
    38    18    19    1
    39    19    20    1
    40     6     7   ar
    41    13    14   ar
    42    14     9   ar
    43     7     2   ar
    44    30    26    1
    45    20    15    1
    46    38    33   ar
    47    42    36    1
    48    39    43    1
@<TRIPOS>MOLECULE
*****
 43 48 0 0 0
SMALL
GASTEIGER

@<TRIPOS>ATOM
      1 C         143.4023  141.5931  159.9703 C.3     1  UNL1        0.0439
      2 C         140.1569  143.4805  161.2571 C.ar    1  UNL1        0.0833
      3 C         141.3722  142.6014  161.2400 C.ar    1  UNL1        0.0150
      4 C         142.1870  142.4723  159.9873 C.ar    1  UNL1       -0.0181
      5 C         141.7867  143.2224  158.7516 C.ar    1  UNL1        0.0104
      6 C         140.5715  144.1016  158.7686 C.ar    1  UNL1        0.0492
      7 C         139.7566  144.2306  160.0213 C.ar    1  UNL1        0.0336
      8 C         138.3391  145.1860  165.9119 C.3     1  UNL1        0.0540
      9 C         138.5065  144.3935  164.6494 C.ar    1  UNL1        0.0805
     10 C         137.6697  143.2229  164.2257 C.ar    1  UNL1        0.0312
     11 C         138.1862  142.7385  162.9034 C.ar    1  UNL1        0.0621
     12 C         137.6422  141.5852  162.1132 C.3     1  UNL1        0.0522
     13 N         139.3421  143.6096  162.5098 N.ar    1  UNL1       -0.2340
     14 N         139.5401  144.6325  163.5888 N.ar    1  UNL1       -0.1698
     15 N         140.1711  144.8517  157.5328 N.pl3   1  UNL1       -0.3027
     16 C         140.1136  144.1440  156.2115 C.3     1  UNL1        0.1231
     17 C         139.7132  144.8941  154.9758 C.3     1  UNL1        0.1636
     18 O         139.3704  146.3519  155.0613 O.3     1  UNL1       -0.3501
     19 C         139.4279  147.0595  156.3826 C.3     1  UNL1        0.1636
     20 C         139.8282  146.3095  157.6184 C.3     1  UNL1        0.1231
     21 C         144.7507  142.1712  160.2826 C.3     1  UNL1        0.0474
     22 C         145.0664  142.6280  161.6761 C.2     1  UNL1        0.0507
     23 O         145.8206  141.7265  162.6081 O.co2   1  UNL1       -0.5492
     24 O         144.6280  143.9862  162.1376 O.co2   1  UNL1       -0.5492
     25 C         143.2691  140.1357  159.6410 C.3     1  UNL1        0.0768
     26 N         142.1295  139.3404  160.2055 N.3     1  UNL1       -0.2724
     27 C         140.9589  138.8072  159.4338 C.3     1  UNL1        0.0721
     28 C         140.0662  138.0759  160.3921 C.3     1  UNL1        0.0187
     29 C         140.6851  138.1571  161.7561 C.3     1  UNL1        0.0178
     30 C         141.9602  138.9387  161.6407 C.3     1  UNL1        0.0721
     31 C         140.1268  137.5614  163.0144 C.3     1  UNL1        0.0077
     32 C         139.0515  138.2819  163.7724 C.3     1  UNL1        0.0459
     33 C         139.4183  139.2367  164.8696 C.ar    1  UNL1        0.0603
     34 C         140.2235  140.4634  164.5583 C.ar    1  UNL1        0.0145
     35 C         140.5903  141.4181  165.6555 C.ar    1  UNL1       -0.0003
     36 C         140.1521  141.1461  167.0641 C.ar    1  UNL1        0.0092
     37 C         139.3469  139.9194  167.3754 C.ar    1  UNL1        0.1240
     38 N         138.9801  138.9647  166.2781 N.ar    1  UNL1       -0.2356
     39 N         138.9086  139.6474  168.7839 N.pl3   1  UNL1       -0.3184
     40 C         139.2755  140.6022  169.8811 C.3     1  UNL1        0.0885
     41 C         140.0806  141.8289  169.5698 C.3     1  UNL1        0.0260
     42 C         140.5189  142.1009  168.1613 C.3     1  UNL1        0.0309
     43 H         138.3802  138.8423  168.9882 H       1  UNL1        0.1482
@<TRIPOS>UNITY_ATOM_ATTR
23 1
charge -1
@<TRIPOS>BOND
     1     8     9    1
     2     9    10   ar
     3    10    11   ar
     4    11    12    1
     5    11    13   ar
     6    13     2    1
     7     2     3   ar
     8     3     4   ar
     9     4     1    1
    10     1    21    1
    11    21    22    1
    12    22    23   ar
    13    22    24   ar
    14     1    25    1
    15    25    26    1
    16    26    27    1
    17    27    28    1
    18    28    29    1
    19    29    31    1
    20    31    32    1
    21    32    33    1
    22    33    34   ar
    23    34    35   ar
    24    35    36   ar
    25    36    37   ar
    26    37    38   ar
    27    37    39    1
    28    39    40    1
    29    40    41    1
    30    41    42    1
    31    29    30    1
    32     4     5   ar
    33     5     6   ar
    34     6    15    1
    35    15    16    1
    36    16    17    1
    37    17    18    1
    38    18    19    1
    39    19    20    1
    40     6     7   ar
    41    13    14   ar
    42    14     9   ar
    43     7     2   ar
    44    30    26    1
    45    20    15    1
    46    38    33   ar
    47    42    36    1
    48    39    43    1
