@<TRIPOS>MOLECULE
*****
 35 38 0 0 0
SMALL
GASTEIGER

@<TRIPOS>ATOM
      1 C         143.0056  140.3434  162.1327 C.3     1  UNL1        0.0690
      2 C         143.7992  139.0917  162.3635 C.3     1  UNL1        0.0485
      3 C         144.3643  138.3363  161.1973 C.3     1  UNL1        0.1436
      4 O         144.1358  138.8326  159.8004 O.3     1  UNL1       -0.3537
      5 C         143.3422  140.0843  159.5696 C.3     1  UNL1        0.1436
      6 C         142.7771  140.8398  160.7357 C.3     1  UNL1        0.0485
      7 N         142.9520  140.2734  163.6302 N.3     1  UNL1       -0.2710
      8 C         142.6791  138.9648  164.3105 C.3     1  UNL1        0.0897
      9 C         142.6255  138.8948  165.8079 C.3     1  UNL1        0.0899
     10 N         142.8449  140.1335  166.6249 N.3     1  UNL1       -0.2665
     11 C         143.1178  141.4422  165.9446 C.3     1  UNL1        0.0899
     12 C         143.1713  141.5121  164.4472 C.3     1  UNL1        0.0897
     13 C         142.7913  140.0635  168.1224 C.3     1  UNL1        0.0992
     14 C         141.7600  140.8521  168.8736 C.ar    1  UNL1       -0.0061
     15 C         140.4330  140.2331  169.1993 C.ar    1  UNL1       -0.0029
     16 C         139.4017  141.0219  169.9506 C.ar    1  UNL1       -0.0003
     17 C         139.6974  142.4295  170.3762 C.ar    1  UNL1       -0.0000
     18 C         141.0243  143.0485  170.0505 C.ar    1  UNL1       -0.0003
     19 C         142.0556  142.2598  169.2993 C.ar    1  UNL1       -0.0029
     20 C         142.1933  141.5709  162.4220 C.3     1  UNL1        0.1143
     21 C         139.9111  142.6801  161.8643 C.2     1  UNL1        0.2304
     22 O         140.6247  143.9161  161.4024 O.2     1  UNL1       -0.2745
     23 N         140.6955  141.5076  162.3741 N.am    1  UNL1       -0.2425
     24 C         139.9819  140.2716  162.8360 C.ar    1  UNL1        0.1373
     25 C         139.7486  139.1391  161.8806 C.ar    1  UNL1        0.0347
     26 C         139.0350  137.9032  162.3425 C.ar    1  UNL1        0.0044
     27 C         138.5548  137.7999  163.7598 C.ar    1  UNL1        0.0232
     28 C         138.7881  138.9325  164.7151 C.ar    1  UNL1        0.1540
     29 N         139.5017  140.1684  164.2533 N.ar    1  UNL1       -0.2263
     30 C         138.3079  138.8292  166.1325 C.3     1  UNL1        0.4349
     31 F         137.8277  138.7259  167.5498 F       1  UNL1       -0.1644
     32 F         138.1267  137.3498  165.9632 F       1  UNL1       -0.1644
     33 F         138.4892  140.3085  166.3017 F       1  UNL1       -0.1644
     34 C         137.6004  143.2549  162.9036 C.3     1  UNL1        0.0101
     35 C         138.4133  142.6169  161.8164 C.3     1  UNL1        0.0857
@<TRIPOS>BOND
     1    34    35    1
     2    35    21    1
     3    21    22    2
     4    21    23   am
     5    23    20    1
     6    20     1    1
     7     1     7    1
     8     7     8    1
     9     8     9    1
    10     9    10    1
    11    10    13    1
    12    13    14    1
    13    14    15   ar
    14    15    16   ar
    15    16    17   ar
    16    17    18   ar
    17    18    19   ar
    18    10    11    1
    19    11    12    1
    20     1     2    1
    21     2     3    1
    22     3     4    1
    23     4     5    1
    24     5     6    1
    25    23    24    1
    26    24    25   ar
    27    25    26   ar
    28    26    27   ar
    29    27    28   ar
    30    28    30    1
    31    30    31    1
    32    30    32    1
    33    30    33    1
    34    28    29   ar
    35     6     1    1
    36    29    24   ar
    37    12     7    1
    38    19    14   ar
@<TRIPOS>MOLECULE
*****
 35 38 0 0 0
SMALL
GASTEIGER

@<TRIPOS>ATOM
      1 C         141.4174  141.8974  167.7100 C.3     1  UNL1        0.0690
      2 C         142.1672  140.8280  168.4475 C.3     1  UNL1        0.0485
      3 C         141.9100  140.6029  169.9081 C.3     1  UNL1        0.1436
      4 O         140.9029  141.4474  170.6311 O.3     1  UNL1       -0.3537
      5 C         140.1530  142.5168  169.8935 C.3     1  UNL1        0.1436
      6 C         140.4102  142.7419  168.4330 C.3     1  UNL1        0.0485
      7 N         142.2665  141.3595  166.5965 N.3     1  UNL1       -0.2710
      8 C         142.4206  139.8781  166.4193 C.3     1  UNL1        0.0897
      9 C         143.2696  139.3403  165.3058 C.3     1  UNL1        0.0899
     10 N         143.9646  140.2839  164.3696 N.3     1  UNL1       -0.2665
     11 C         143.8105  141.7654  164.5468 C.3     1  UNL1        0.0899
     12 C         142.9614  142.3032  165.6603 C.3     1  UNL1        0.0897
     13 C         144.8137  139.7461  163.2561 C.3     1  UNL1        0.0992
     14 C         144.1839  139.3672  161.9485 C.ar    1  UNL1       -0.0061
     15 C         143.8291  137.9358  161.6738 C.ar    1  UNL1       -0.0029
     16 C         143.1993  137.5570  160.3662 C.ar    1  UNL1       -0.0003
     17 C         142.9243  138.6094  159.3333 C.ar    1  UNL1       -0.0000
     18 C         143.2792  140.0407  159.6080 C.ar    1  UNL1       -0.0003
     19 C         143.9090  140.4196  160.9156 C.ar    1  UNL1       -0.0029
     20 C         140.9624  142.7801  166.5857 C.3     1  UNL1        0.1143
     21 C         138.8504  143.4938  165.2516 C.2     1  UNL1        0.2304
     22 O         139.1789  144.9356  165.5029 O.2     1  UNL1       -0.2745
     23 N         139.7422  142.4160  165.7930 N.am    1  UNL1       -0.2425
     24 C         139.4136  140.9741  165.5417 C.ar    1  UNL1        0.1373
     25 C         138.7274  140.1654  166.6024 C.ar    1  UNL1        0.0347
     26 C         138.3989  138.7236  166.3511 C.ar    1  UNL1        0.0044
     27 C         138.7567  138.0905  165.0392 C.ar    1  UNL1        0.0232
     28 C         139.4429  138.8992  163.9786 C.ar    1  UNL1        0.1540
     29 N         139.7715  140.3410  164.2298 N.ar    1  UNL1       -0.2263
     30 C         139.8008  138.2661  162.6666 C.3     1  UNL1        0.4349
     31 F         140.1586  137.6330  161.3546 F       1  UNL1       -0.1644
     32 F         138.6994  137.2644  162.8496 F       1  UNL1       -0.1644
     33 F         140.9022  139.2678  162.4836 F       1  UNL1       -0.1644
     34 C         137.6367  143.2692  162.9654 C.3     1  UNL1        0.0101
     35 C         137.6301  143.1298  164.4589 C.3     1  UNL1        0.0857
@<TRIPOS>BOND
     1    34    35    1
     2    35    21    1
     3    21    22    2
     4    21    23   am
     5    23    20    1
     6    20     1    1
     7     1     7    1
     8     7     8    1
     9     8     9    1
    10     9    10    1
    11    10    13    1
    12    13    14    1
    13    14    15   ar
    14    15    16   ar
    15    16    17   ar
    16    17    18   ar
    17    18    19   ar
    18    10    11    1
    19    11    12    1
    20     1     2    1
    21     2     3    1
    22     3     4    1
    23     4     5    1
    24     5     6    1
    25    23    24    1
    26    24    25   ar
    27    25    26   ar
    28    26    27   ar
    29    27    28   ar
    30    28    30    1
    31    30    31    1
    32    30    32    1
    33    30    33    1
    34    28    29   ar
    35     6     1    1
    36    29    24   ar
    37    12     7    1
    38    19    14   ar
@<TRIPOS>MOLECULE
*****
 35 38 0 0 0
SMALL
GASTEIGER

@<TRIPOS>ATOM
      1 C         139.4660  140.5806  162.2433 C.3     1  UNL1        0.0690
      2 C         140.0890  139.2705  161.8620 C.3     1  UNL1        0.0485
      3 C         139.7845  138.6551  160.5284 C.3     1  UNL1        0.1436
      4 O         138.8568  139.3499  159.5761 O.3     1  UNL1       -0.3537
      5 C         138.2338  140.6600  159.9574 C.3     1  UNL1        0.1436
      6 C         138.5384  141.2754  161.2910 C.3     1  UNL1        0.0485
      7 N         140.2749  140.3079  163.4769 N.3     1  UNL1       -0.2710
      8 C         141.7110  139.8924  163.3554 C.3     1  UNL1        0.0897
      9 C         142.5197  139.6198  164.5889 C.3     1  UNL1        0.0899
     10 N         141.8923  139.7627  165.9439 N.3     1  UNL1       -0.2665
     11 C         140.4562  140.1783  166.0653 C.3     1  UNL1        0.0899
     12 C         139.6474  140.4509  164.8318 C.3     1  UNL1        0.0897
     13 C         142.7011  139.4901  167.1774 C.3     1  UNL1        0.0992
     14 C         142.5172  140.3419  168.3983 C.ar    1  UNL1       -0.0061
     15 C         141.8409  139.7769  169.6121 C.ar    1  UNL1       -0.0029
     16 C         141.6570  140.6289  170.8330 C.ar    1  UNL1       -0.0003
     17 C         142.1495  142.0456  170.8400 C.ar    1  UNL1       -0.0000
     18 C         142.8259  142.6106  169.6262 C.ar    1  UNL1       -0.0003
     19 C         143.0098  141.7588  168.4054 C.ar    1  UNL1       -0.0029
     20 C         139.1239  141.7960  163.0531 C.3     1  UNL1        0.1143
     21 C         138.9739  144.3434  162.5648 C.2     1  UNL1        0.2304
     22 O         137.4784  144.2732  162.6583 O.2     1  UNL1       -0.2745
     23 N         139.7966  143.1048  162.7622 N.am    1  UNL1       -0.2425
     24 C         141.2921  143.1750  162.6687 C.ar    1  UNL1        0.1373
     25 C         141.9694  143.0025  161.3415 C.ar    1  UNL1        0.0347
     26 C         143.4648  143.0727  161.2479 C.ar    1  UNL1        0.0044
     27 C         144.2829  143.3153  162.4816 C.ar    1  UNL1        0.0232
     28 C         143.6055  143.4877  163.8087 C.ar    1  UNL1        0.1540
     29 N         142.1101  143.4176  163.9023 N.ar    1  UNL1       -0.2263
     30 C         144.4236  143.7303  165.0425 C.3     1  UNL1        0.4349
     31 F         145.2416  143.9729  166.2762 F       1  UNL1       -0.1644
     32 F         144.3329  145.2097  164.8116 F       1  UNL1       -0.1644
     33 F         144.5142  142.2510  165.2733 F       1  UNL1       -0.1644
     34 C         139.8755  146.0786  160.8542 C.3     1  UNL1        0.0101
     35 C         139.6465  145.6522  162.2739 C.3     1  UNL1        0.0857
@<TRIPOS>BOND
     1    34    35    1
     2    35    21    1
     3    21    22    2
     4    21    23   am
     5    23    20    1
     6    20     1    1
     7     1     7    1
     8     7     8    1
     9     8     9    1
    10     9    10    1
    11    10    13    1
    12    13    14    1
    13    14    15   ar
    14    15    16   ar
    15    16    17   ar
    16    17    18   ar
    17    18    19   ar
    18    10    11    1
    19    11    12    1
    20     1     2    1
    21     2     3    1
    22     3     4    1
    23     4     5    1
    24     5     6    1
    25    23    24    1
    26    24    25   ar
    27    25    26   ar
    28    26    27   ar
    29    27    28   ar
    30    28    30    1
    31    30    31    1
    32    30    32    1
    33    30    33    1
    34    28    29   ar
    35     6     1    1
    36    29    24   ar
    37    12     7    1
    38    19    14   ar
@<TRIPOS>MOLECULE
*****
 35 38 0 0 0
SMALL
GASTEIGER

@<TRIPOS>ATOM
      1 C         139.3151  141.7761  162.3753 C.3     1  UNL1        0.0690
      2 C         139.2260  143.0795  163.1124 C.3     1  UNL1        0.0485
      3 C         139.2048  144.3717  162.3510 C.3     1  UNL1        0.1436
      4 O         139.2727  144.3605  160.8525 O.3     1  UNL1       -0.3537
      5 C         139.3618  143.0572  160.1155 C.3     1  UNL1        0.1436
      6 C         139.3830  141.7650  160.8769 C.3     1  UNL1        0.0485
      7 N         139.2731  141.2740  163.7882 N.3     1  UNL1       -0.2710
      8 C         138.3388  140.1615  164.1613 C.3     1  UNL1        0.0897
      9 C         138.2967  139.6595  165.5742 C.3     1  UNL1        0.0899
     10 N         139.1891  140.2700  166.6139 N.3     1  UNL1       -0.2665
     11 C         140.1234  141.3825  166.2408 C.3     1  UNL1        0.0899
     12 C         140.1654  141.8846  164.8280 C.3     1  UNL1        0.0897
     13 C         139.1470  139.7679  168.0268 C.3     1  UNL1        0.0992
     14 C         140.1077  140.3088  169.0439 C.ar    1  UNL1       -0.0061
     15 C         139.6926  141.4356  169.9428 C.ar    1  UNL1       -0.0029
     16 C         140.6534  141.9765  170.9599 C.ar    1  UNL1       -0.0003
     17 C         142.0291  141.3907  171.0780 C.ar    1  UNL1       -0.0000
     18 C         142.4442  140.2638  170.1791 C.ar    1  UNL1       -0.0003
     19 C         141.4835  139.7229  169.1621 C.ar    1  UNL1       -0.0029
     20 C         139.3896  140.2983  162.1290 C.3     1  UNL1        0.1143
     21 C         140.7952  138.7535  160.5837 C.2     1  UNL1        0.2304
     22 O         139.5784  138.4805  159.7500 O.2     1  UNL1       -0.2745
     23 N         140.7007  139.6625  161.7732 N.am    1  UNL1       -0.2425
     24 C         141.9175  139.9355  162.6069 C.ar    1  UNL1        0.1373
     25 C         142.8520  141.0461  162.2286 C.ar    1  UNL1        0.0347
     26 C         144.0688  141.3192  163.0623 C.ar    1  UNL1        0.0044
     27 C         144.3508  140.4817  164.2743 C.ar    1  UNL1        0.0232
     28 C         143.4162  139.3711  164.6526 C.ar    1  UNL1        0.1540
     29 N         142.1995  139.0980  163.8189 N.ar    1  UNL1       -0.2263
     30 C         143.6983  138.5336  165.8647 C.3     1  UNL1        0.4349
     31 F         143.9804  137.6961  167.0767 F       1  UNL1       -0.1644
     32 F         142.2333  138.5042  166.1852 F       1  UNL1       -0.1644
     33 F         145.1633  138.5630  165.5441 F       1  UNL1       -0.1644
     34 C         143.0004  138.7614  159.2100 C.3     1  UNL1        0.0101
     35 C         142.1063  138.1176  160.2279 C.3     1  UNL1        0.0857
@<TRIPOS>BOND
     1    34    35    1
     2    35    21    1
     3    21    22    2
     4    21    23   am
     5    23    20    1
     6    20     1    1
     7     1     7    1
     8     7     8    1
     9     8     9    1
    10     9    10    1
    11    10    13    1
    12    13    14    1
    13    14    15   ar
    14    15    16   ar
    15    16    17   ar
    16    17    18   ar
    17    18    19   ar
    18    10    11    1
    19    11    12    1
    20     1     2    1
    21     2     3    1
    22     3     4    1
    23     4     5    1
    24     5     6    1
    25    23    24    1
    26    24    25   ar
    27    25    26   ar
    28    26    27   ar
    29    27    28   ar
    30    28    30    1
    31    30    31    1
    32    30    32    1
    33    30    33    1
    34    28    29   ar
    35     6     1    1
    36    29    24   ar
    37    12     7    1
    38    19    14   ar
@<TRIPOS>MOLECULE
*****
 35 38 0 0 0
SMALL
GASTEIGER

@<TRIPOS>ATOM
      1 C         140.8103  139.2915  162.2997 C.3     1  UNL1        0.0690
      2 C         139.4578  138.6431  162.3141 C.3     1  UNL1        0.0485
      3 C         138.8860  138.0728  161.0500 C.3     1  UNL1        0.1436
      4 O         139.6667  138.1510  159.7716 O.3     1  UNL1       -0.3537
      5 C         141.0192  138.7995  159.7572 C.3     1  UNL1        0.1436
      6 C         141.5910  139.3697  161.0212 C.3     1  UNL1        0.0485
      7 N         140.4567  139.4587  163.7478 N.3     1  UNL1       -0.2710
      8 C         141.4878  139.2011  164.8062 C.3     1  UNL1        0.0897
      9 C         141.1342  139.3683  166.2543 C.3     1  UNL1        0.0899
     10 N         139.7494  139.7931  166.6439 N.3     1  UNL1       -0.2665
     11 C         138.7182  140.0506  165.5855 C.3     1  UNL1        0.0899
     12 C         139.0718  139.8834  164.1375 C.3     1  UNL1        0.0897
     13 C         139.3957  139.9603  168.0921 C.3     1  UNL1        0.0992
     14 C         140.2891  140.7581  168.9950 C.ar    1  UNL1       -0.0061
     15 C         140.4979  142.2216  168.7412 C.ar    1  UNL1       -0.0029
     16 C         141.3913  143.0195  169.6442 C.ar    1  UNL1       -0.0003
     17 C         142.0759  142.3537  170.8009 C.ar    1  UNL1       -0.0000
     18 C         141.8672  140.8902  171.0547 C.ar    1  UNL1       -0.0003
     19 C         140.9738  140.0924  170.1518 C.ar    1  UNL1       -0.0029
     20 C         142.0400  139.9981  162.7882 C.3     1  UNL1        0.1143
     21 C         143.6461  141.9496  162.1869 C.2     1  UNL1        0.2304
     22 O         144.8141  141.0115  162.2619 O.2     1  UNL1       -0.2745
     23 N         142.2591  141.4429  162.4501 N.am    1  UNL1       -0.2425
     24 C         141.0910  142.3811  162.3750 C.ar    1  UNL1        0.1373
     25 C         140.4467  142.6722  161.0521 C.ar    1  UNL1        0.0347
     26 C         139.2787  143.6104  160.9771 C.ar    1  UNL1        0.0044
     27 C         138.7551  144.2574  162.2250 C.ar    1  UNL1        0.0232
     28 C         139.3994  143.9662  163.5478 C.ar    1  UNL1        0.1540
     29 N         140.5674  143.0281  163.6229 N.ar    1  UNL1       -0.2263
     30 C         138.8758  144.6133  164.7958 C.3     1  UNL1        0.4349
     31 F         138.3522  145.2603  166.0437 F       1  UNL1       -0.1644
     32 F         137.5335  143.9880  164.5567 F       1  UNL1       -0.1644
     33 F         140.2181  145.2386  165.0348 F       1  UNL1       -0.1644
     34 C         144.0726  144.3981  162.9440 C.3     1  UNL1        0.0101
     35 C         143.8653  143.3945  161.8487 C.3     1  UNL1        0.0857
@<TRIPOS>BOND
     1    34    35    1
     2    35    21    1
     3    21    22    2
     4    21    23   am
     5    23    20    1
     6    20     1    1
     7     1     7    1
     8     7     8    1
     9     8     9    1
    10     9    10    1
    11    10    13    1
    12    13    14    1
    13    14    15   ar
    14    15    16   ar
    15    16    17   ar
    16    17    18   ar
    17    18    19   ar
    18    10    11    1
    19    11    12    1
    20     1     2    1
    21     2     3    1
    22     3     4    1
    23     4     5    1
    24     5     6    1
    25    23    24    1
    26    24    25   ar
    27    25    26   ar
    28    26    27   ar
    29    27    28   ar
    30    28    30    1
    31    30    31    1
    32    30    32    1
    33    30    33    1
    34    28    29   ar
    35     6     1    1
    36    29    24   ar
    37    12     7    1
    38    19    14   ar
@<TRIPOS>MOLECULE
*****
 35 38 0 0 0
SMALL
GASTEIGER

@<TRIPOS>ATOM
      1 C         140.8866  141.4435  167.8063 C.3     1  UNL1        0.0690
      2 C         142.0300  142.2000  168.4148 C.3     1  UNL1        0.0485
      3 C         142.4360  141.9321  169.8338 C.3     1  UNL1        0.1436
      4 O         141.6985  140.9076  170.6442 O.3     1  UNL1       -0.3537
      5 C         140.5552  140.1512  170.0357 C.3     1  UNL1        0.1436
      6 C         140.1492  140.4191  168.6167 C.3     1  UNL1        0.0485
      7 N         141.2736  142.3097  166.6444 N.3     1  UNL1       -0.2710
      8 C         142.7139  142.4245  166.2415 C.3     1  UNL1        0.0897
      9 C         143.1009  143.2907  165.0796 C.3     1  UNL1        0.0899
     10 N         142.0475  144.0420  164.3206 N.3     1  UNL1       -0.2665
     11 C         140.6073  143.9272  164.7236 C.3     1  UNL1        0.0899
     12 C         140.2203  143.0611  165.8854 C.3     1  UNL1        0.0897
     13 C         142.4345  144.9082  163.1587 C.3     1  UNL1        0.0992
     14 C         141.9715  144.5585  161.7755 C.ar    1  UNL1       -0.0061
     15 C         142.7199  143.5384  160.9696 C.ar    1  UNL1       -0.0029
     16 C         142.2568  143.1887  159.5863 C.ar    1  UNL1       -0.0003
     17 C         141.0455  143.8590  159.0091 C.ar    1  UNL1       -0.0000
     18 C         140.2971  144.8790  159.8150 C.ar    1  UNL1       -0.0003
     19 C         140.7601  145.2288  161.1982 C.ar    1  UNL1       -0.0029
     20 C         139.8776  140.9878  166.7942 C.3     1  UNL1        0.1143
     21 C         139.0081  138.7782  165.7401 C.2     1  UNL1        0.2304
     22 O         137.6392  139.0560  166.2870 O.2     1  UNL1       -0.2745
     23 N         140.1273  139.7441  165.9937 N.am    1  UNL1       -0.2425
     24 C         141.4961  139.4663  165.4468 C.ar    1  UNL1        0.1373
     25 C         142.5210  138.7826  166.3025 C.ar    1  UNL1        0.0347
     26 C         143.8899  138.5048  165.7556 C.ar    1  UNL1        0.0044
     27 C         144.2338  138.9108  164.3531 C.ar    1  UNL1        0.0232
     28 C         143.2089  139.5945  163.4975 C.ar    1  UNL1        0.1540
     29 N         141.8400  139.8723  164.0444 N.ar    1  UNL1       -0.2263
     30 C         143.5528  140.0004  162.0950 C.3     1  UNL1        0.4349
     31 F         143.8966  140.4064  160.6925 F       1  UNL1       -0.1644
     32 F         144.7302  140.7752  162.6080 F       1  UNL1       -0.1644
     33 F         142.3753  139.2256  161.5820 F       1  UNL1       -0.1644
     34 C         138.9958  137.5279  163.4627 C.3     1  UNL1        0.0101
     35 C         139.2576  137.5345  164.9396 C.3     1  UNL1        0.0857
@<TRIPOS>BOND
     1    34    35    1
     2    35    21    1
     3    21    22    2
     4    21    23   am
     5    23    20    1
     6    20     1    1
     7     1     7    1
     8     7     8    1
     9     8     9    1
    10     9    10    1
    11    10    13    1
    12    13    14    1
    13    14    15   ar
    14    15    16   ar
    15    16    17   ar
    16    17    18   ar
    17    18    19   ar
    18    10    11    1
    19    11    12    1
    20     1     2    1
    21     2     3    1
    22     3     4    1
    23     4     5    1
    24     5     6    1
    25    23    24    1
    26    24    25   ar
    27    25    26   ar
    28    26    27   ar
    29    27    28   ar
    30    28    30    1
    31    30    31    1
    32    30    32    1
    33    30    33    1
    34    28    29   ar
    35     6     1    1
    36    29    24   ar
    37    12     7    1
    38    19    14   ar
@<TRIPOS>MOLECULE
*****
 35 38 0 0 0
SMALL
GASTEIGER

@<TRIPOS>ATOM
      1 C         141.0764  139.2289  162.0509 C.3     1  UNL1        0.0690
      2 C         142.2446  138.2937  161.9483 C.3     1  UNL1        0.0485
      3 C         142.6186  137.7037  160.6209 C.3     1  UNL1        0.1436
      4 O         141.8244  138.0490  159.3961 O.3     1  UNL1       -0.3537
      5 C         140.6562  138.9842  159.4988 C.3     1  UNL1        0.1436
      6 C         140.2821  139.5741  160.8262 C.3     1  UNL1        0.0485
      7 N         141.5181  139.2056  163.4843 N.3     1  UNL1       -0.2710
      8 C         140.4990  139.2490  164.5840 C.3     1  UNL1        0.0897
      9 C         140.9408  139.2257  166.0172 C.3     1  UNL1        0.0899
     10 N         142.4017  139.1591  166.3508 N.3     1  UNL1       -0.2665
     11 C         143.4208  139.1158  165.2510 C.3     1  UNL1        0.0899
     12 C         142.9791  139.1390  163.8178 C.3     1  UNL1        0.0897
     13 C         142.8435  139.1359  167.7841 C.3     1  UNL1        0.0992
     14 C         142.3768  140.2022  168.7301 C.ar    1  UNL1       -0.0061
     15 C         142.9453  141.5873  168.6385 C.ar    1  UNL1       -0.0029
     16 C         142.4786  142.6537  169.5846 C.ar    1  UNL1       -0.0003
     17 C         141.4434  142.3350  170.6223 C.ar    1  UNL1       -0.0000
     18 C         140.8748  140.9499  170.7139 C.ar    1  UNL1       -0.0003
     19 C         141.3415  139.8836  169.7678 C.ar    1  UNL1       -0.0029
     20 C         140.0615  140.1560  162.6514 C.3     1  UNL1        0.1143
     21 C         138.9390  142.4670  162.2647 C.2     1  UNL1        0.2304
     22 O         137.5873  141.8184  162.3128 O.2     1  UNL1       -0.2745
     23 N         140.1761  141.6357  162.4340 N.am    1  UNL1       -0.2425
     24 C         141.5279  142.2842  162.3859 C.ar    1  UNL1        0.1373
     25 C         142.1774  142.5668  161.0637 C.ar    1  UNL1        0.0347
     26 C         143.5292  143.2153  161.0156 C.ar    1  UNL1        0.0044
     27 C         144.2312  143.5812  162.2897 C.ar    1  UNL1        0.0232
     28 C         143.5816  143.2986  163.6118 C.ar    1  UNL1        0.1540
     29 N         142.2299  142.6501  163.6600 N.ar    1  UNL1       -0.2263
     30 C         144.2837  143.6645  164.8860 C.3     1  UNL1        0.4349
     31 F         144.9857  144.0305  166.1600 F       1  UNL1       -0.1644
     32 F         144.4207  142.2105  165.2279 F       1  UNL1       -0.1644
     33 F         144.1466  145.1186  164.5439 F       1  UNL1       -0.1644
     34 C         138.9829  144.8842  163.2161 C.3     1  UNL1        0.0101
     35 C         139.0536  143.9467  162.0473 C.3     1  UNL1        0.0857
@<TRIPOS>BOND
     1    34    35    1
     2    35    21    1
     3    21    22    2
     4    21    23   am
     5    23    20    1
     6    20     1    1
     7     1     7    1
     8     7     8    1
     9     8     9    1
    10     9    10    1
    11    10    13    1
    12    13    14    1
    13    14    15   ar
    14    15    16   ar
    15    16    17   ar
    16    17    18   ar
    17    18    19   ar
    18    10    11    1
    19    11    12    1
    20     1     2    1
    21     2     3    1
    22     3     4    1
    23     4     5    1
    24     5     6    1
    25    23    24    1
    26    24    25   ar
    27    25    26   ar
    28    26    27   ar
    29    27    28   ar
    30    28    30    1
    31    30    31    1
    32    30    32    1
    33    30    33    1
    34    28    29   ar
    35     6     1    1
    36    29    24   ar
    37    12     7    1
    38    19    14   ar
@<TRIPOS>MOLECULE
*****
 35 38 0 0 0
SMALL
GASTEIGER

@<TRIPOS>ATOM
      1 C         143.4786  140.9329  162.4126 C.3     1  UNL1        0.0690
      2 C         143.9082  142.1837  163.1203 C.3     1  UNL1        0.0485
      3 C         144.3598  143.3755  162.3293 C.3     1  UNL1        0.1436
      4 O         144.3818  143.3164  160.8306 O.3     1  UNL1       -0.3537
      5 C         143.9523  142.0656  160.1229 C.3     1  UNL1        0.1436
      6 C         143.5007  140.8738  160.9139 C.3     1  UNL1        0.0485
      7 N         143.2839  140.5060  163.8374 N.3     1  UNL1       -0.2710
      8 C         143.7814  139.1665  164.2937 C.3     1  UNL1        0.0897
      9 C         143.5867  138.7397  165.7184 C.3     1  UNL1        0.0899
     10 N         142.8944  139.6523  166.6868 N.3     1  UNL1       -0.2665
     11 C         142.3969  140.9918  166.2305 C.3     1  UNL1        0.0899
     12 C         142.5916  141.4186  164.8058 C.3     1  UNL1        0.0897
     13 C         142.6997  139.2254  168.1116 C.3     1  UNL1        0.0992
     14 C         141.9447  140.1066  169.0620 C.ar    1  UNL1       -0.0061
     15 C         142.6886  141.0304  169.9802 C.ar    1  UNL1       -0.0029
     16 C         141.9335  141.9116  170.9307 C.ar    1  UNL1       -0.0003
     17 C         140.4345  141.8690  170.9630 C.ar    1  UNL1       -0.0000
     18 C         139.6905  140.9452  170.0448 C.ar    1  UNL1       -0.0003
     19 C         140.4456  140.0640  169.0943 C.ar    1  UNL1       -0.0029
     20 C         142.9814  139.5337  162.1997 C.3     1  UNL1        0.1143
     21 C         141.2568  138.6383  160.4753 C.2     1  UNL1        0.2304
     22 O         142.3783  138.2144  159.5738 O.2     1  UNL1       -0.2745
     23 N         141.5584  139.2980  161.7882 N.am    1  UNL1       -0.2425
     24 C         140.4369  139.7218  162.6897 C.ar    1  UNL1        0.1373
     25 C         139.8012  141.0690  162.5133 C.ar    1  UNL1        0.0347
     26 C         138.6797  141.4929  163.4148 C.ar    1  UNL1        0.0044
     27 C         138.1940  140.5696  164.4926 C.ar    1  UNL1        0.0232
     28 C         138.8297  139.2225  164.6689 C.ar    1  UNL1        0.1540
     29 N         139.9512  138.7986  163.7675 N.ar    1  UNL1       -0.2263
     30 C         138.3440  138.2991  165.7467 C.3     1  UNL1        0.4349
     31 F         137.8582  137.3759  166.8245 F       1  UNL1       -0.1644
     32 F         137.6231  139.4409  166.3999 F       1  UNL1       -0.1644
     33 F         139.0649  137.1574  165.0935 F       1  UNL1       -0.1644
     34 C         139.1395  139.3849  159.1677 C.3     1  UNL1        0.0101
     35 C         139.8338  138.4025  160.0637 C.3     1  UNL1        0.0857
@<TRIPOS>BOND
     1    34    35    1
     2    35    21    1
     3    21    22    2
     4    21    23   am
     5    23    20    1
     6    20     1    1
     7     1     7    1
     8     7     8    1
     9     8     9    1
    10     9    10    1
    11    10    13    1
    12    13    14    1
    13    14    15   ar
    14    15    16   ar
    15    16    17   ar
    16    17    18   ar
    17    18    19   ar
    18    10    11    1
    19    11    12    1
    20     1     2    1
    21     2     3    1
    22     3     4    1
    23     4     5    1
    24     5     6    1
    25    23    24    1
    26    24    25   ar
    27    25    26   ar
    28    26    27   ar
    29    27    28   ar
    30    28    30    1
    31    30    31    1
    32    30    32    1
    33    30    33    1
    34    28    29   ar
    35     6     1    1
    36    29    24   ar
    37    12     7    1
    38    19    14   ar
@<TRIPOS>MOLECULE
*****
 35 38 0 0 0
SMALL
GASTEIGER

@<TRIPOS>ATOM
      1 C         142.5790  142.1874  162.3665 C.3     1  UNL1        0.0690
      2 C         143.7972  142.1704  163.2415 C.3     1  UNL1        0.0485
      3 C         145.1519  141.9486  162.6368 C.3     1  UNL1        0.1436
      4 O         145.2884  141.7438  161.1571 O.3     1  UNL1       -0.3537
      5 C         144.0702  141.7608  160.2821 C.3     1  UNL1        0.1436
      6 C         142.7155  141.9826  160.8868 C.3     1  UNL1        0.0485
      7 N         141.9427  142.4270  163.7036 N.3     1  UNL1       -0.2710
      8 C         140.8783  143.4736  163.8509 C.3     1  UNL1        0.0897
      9 C         140.2420  143.7131  165.1879 C.3     1  UNL1        0.0899
     10 N         140.6701  142.9060  166.3776 N.3     1  UNL1       -0.2665
     11 C         141.7344  141.8594  166.2303 C.3     1  UNL1        0.0899
     12 C         142.3707  141.6199  164.8933 C.3     1  UNL1        0.0897
     13 C         140.0337  143.1456  167.7147 C.3     1  UNL1        0.0992
     14 C         140.4587  142.3356  168.9035 C.ar    1  UNL1       -0.0061
     15 C         141.5241  142.8549  169.8228 C.ar    1  UNL1       -0.0029
     16 C         141.9491  142.0448  171.0116 C.ar    1  UNL1       -0.0003
     17 C         141.3085  140.7155  171.2811 C.ar    1  UNL1       -0.0000
     18 C         140.2430  140.1962  170.3618 C.ar    1  UNL1       -0.0003
     19 C         139.8181  141.0062  169.1730 C.ar    1  UNL1       -0.0029
     20 C         141.1398  142.2876  161.9558 C.3     1  UNL1        0.1143
     21 C         139.5736  140.9353  160.3847 C.2     1  UNL1        0.2304
     22 O         139.5752  142.0715  159.4053 O.2     1  UNL1       -0.2745
     23 N         140.3559  141.0434  161.6600 N.am    1  UNL1       -0.2425
     24 C         140.3543  139.9073  162.6394 C.ar    1  UNL1        0.1373
     25 C         141.3110  138.7653  162.4648 C.ar    1  UNL1        0.0347
     26 C         141.3094  137.6292  163.4442 C.ar    1  UNL1        0.0044
     27 C         140.3511  137.6351  164.5982 C.ar    1  UNL1        0.0232
     28 C         139.3945  138.7772  164.7728 C.ar    1  UNL1        0.1540
     29 N         139.3960  139.9133  163.7934 N.ar    1  UNL1       -0.2263
     30 C         138.4362  138.7832  165.9268 C.3     1  UNL1        0.4349
     31 F         137.4779  138.7891  167.0808 F       1  UNL1       -0.1644
     32 F         138.6054  140.2676  166.0596 F       1  UNL1       -0.1644
     33 F         138.2670  137.2987  165.7940 F       1  UNL1       -0.1644
     34 C         137.3765  139.5617  160.5748 C.3     1  UNL1        0.0101
     35 C         138.7896  139.6912  160.0888 C.3     1  UNL1        0.0857
@<TRIPOS>BOND
     1    34    35    1
     2    35    21    1
     3    21    22    2
     4    21    23   am
     5    23    20    1
     6    20     1    1
     7     1     7    1
     8     7     8    1
     9     8     9    1
    10     9    10    1
    11    10    13    1
    12    13    14    1
    13    14    15   ar
    14    15    16   ar
    15    16    17   ar
    16    17    18   ar
    17    18    19   ar
    18    10    11    1
    19    11    12    1
    20     1     2    1
    21     2     3    1
    22     3     4    1
    23     4     5    1
    24     5     6    1
    25    23    24    1
    26    24    25   ar
    27    25    26   ar
    28    26    27   ar
    29    27    28   ar
    30    28    30    1
    31    30    31    1
    32    30    32    1
    33    30    33    1
    34    28    29   ar
    35     6     1    1
    36    29    24   ar
    37    12     7    1
    38    19    14   ar
