@<TRIPOS>MOLECULE
*****
 32 36 0 0 0
SMALL
GASTEIGER

@<TRIPOS>ATOM
      1 O         143.4966  140.6076  157.3621 O.2     1  UNL1       -0.2647
      2 C         143.2035  139.3636  158.1473 C.2     1  UNL1        0.3054
      3 N         143.5138  139.3120  159.6139 N.am    1  UNL1       -0.2719
      4 C         143.2207  138.0680  160.3992 C.3     1  UNL1        0.0976
      5 C         143.5309  138.0164  161.8658 C.3     1  UNL1        0.0651
      6 C         144.1342  139.2088  162.5472 C.3     1  UNL1        0.1693
      7 C         144.4273  140.4527  161.7620 C.3     1  UNL1        0.0651
      8 C         144.1171  140.5044  160.2954 C.3     1  UNL1        0.0976
      9 C         142.6002  138.1713  157.4659 C.ar    1  UNL1        0.3139
     10 N         143.3413  136.9529  157.0008 N.ar    1  UNL1       -0.1831
     11 C         142.3490  136.0166  156.3774 C.ar    1  UNL1        0.2037
     12 N         140.9946  136.6563  156.4572 N.ar    1  UNL1       -0.0554
     13 O         141.1498  137.9880  157.1299 O.2     1  UNL1       -0.3276
     14 C         142.6569  134.6759  155.7792 C.ar    1  UNL1        0.0391
     15 C         141.8311  134.1552  154.6405 C.ar    1  UNL1        0.0032
     16 C         142.1391  132.8145  154.0423 C.ar    1  UNL1        0.0001
     17 C         143.2729  131.9947  154.5829 C.ar    1  UNL1        0.0000
     18 C         144.0988  132.5154  155.7217 C.ar    1  UNL1        0.0001
     19 C         143.7908  133.8560  156.3198 C.ar    1  UNL1        0.0032
     20 O         144.4445  139.1571  164.0140 O.3     1  UNL1       -0.4791
     21 C         143.3573  139.3962  165.0194 C.ar    1  UNL1        0.1384
     22 C         142.0988  140.1020  164.6096 C.ar    1  UNL1        0.0366
     23 C         141.0117  140.3411  165.6150 C.ar    1  UNL1        0.0002
     24 C         141.1831  139.8745  167.0303 C.ar    1  UNL1       -0.0059
     25 C         142.4416  139.1687  167.4400 C.ar    1  UNL1        0.0002
     26 C         143.5287  138.9296  166.4346 C.ar    1  UNL1        0.0366
     27 C         140.0959  140.1136  168.0358 C.3     1  UNL1        0.0991
     28 N         140.1116  141.3561  168.8761 N.3     1  UNL1       -0.2690
     29 C         140.7149  142.6740  168.4900 C.3     1  UNL1        0.0724
     30 C         140.5029  143.6312  169.6253 C.3     1  UNL1        0.0188
     31 C         139.7685  142.9048  170.7130 C.3     1  UNL1        0.0188
     32 C         139.5266  141.4987  170.2500 C.3     1  UNL1        0.0724
@<TRIPOS>BOND
     1     1     2    2
     2     2     9    1
     3     9    10   ar
     4    10    11   ar
     5    11    14    1
     6    14    15   ar
     7    15    16   ar
     8    16    17   ar
     9    17    18   ar
    10    18    19   ar
    11    11    12   ar
    12    12    13   ar
    13     2     3   am
    14     3     4    1
    15     4     5    1
    16     5     6    1
    17     6    20    1
    18    20    21    1
    19    21    22   ar
    20    22    23   ar
    21    23    24   ar
    22    24    27    1
    23    27    28    1
    24    28    29    1
    25    29    30    1
    26    30    31    1
    27    31    32    1
    28    24    25   ar
    29    25    26   ar
    30     6     7    1
    31     7     8    1
    32    13     9   ar
    33     8     3    1
    34    19    14   ar
    35    26    21   ar
    36    32    28    1
@<TRIPOS>MOLECULE
*****
 32 36 0 0 0
SMALL
GASTEIGER

@<TRIPOS>ATOM
      1 O         137.4244  139.4994  160.8188 O.2     1  UNL1       -0.2647
      2 C         138.7579  139.0568  161.3440 C.2     1  UNL1        0.3054
      3 N         139.8640  138.7156  160.3900 N.am    1  UNL1       -0.2719
      4 C         141.1975  138.2730  160.9152 C.3     1  UNL1        0.0976
      5 C         142.3036  137.9319  159.9612 C.3     1  UNL1        0.0651
      6 C         142.0762  138.0334  158.4820 C.3     1  UNL1        0.1693
      7 C         140.7427  138.4760  157.9568 C.3     1  UNL1        0.0651
      8 C         139.6366  138.8171  158.9108 C.3     1  UNL1        0.0976
      9 C         138.9853  138.9553  162.8232 C.ar    1  UNL1        0.3139
     10 N         139.2439  140.1010  163.7562 N.ar    1  UNL1       -0.1831
     11 C         139.4124  139.5441  165.1387 C.ar    1  UNL1        0.2037
     12 N         139.2580  138.0541  165.0602 N.ar    1  UNL1       -0.0554
     13 O         138.9940  137.6901  163.6292 O.2     1  UNL1       -0.3276
     14 C         139.6871  140.3377  166.3816 C.ar    1  UNL1        0.0391
     15 C         139.3441  139.7683  167.7262 C.ar    1  UNL1        0.0032
     16 C         139.6189  140.5619  168.9690 C.ar    1  UNL1        0.0001
     17 C         140.2366  141.9251  168.8671 C.ar    1  UNL1        0.0000
     18 C         140.5796  142.4945  167.5225 C.ar    1  UNL1        0.0001
     19 C         140.3048  141.7008  166.2797 C.ar    1  UNL1        0.0032
     20 O         143.1824  137.6922  157.5280 O.3     1  UNL1       -0.4791
     21 C         143.1376  136.4067  156.7564 C.ar    1  UNL1        0.1384
     22 C         142.9744  136.4321  155.2655 C.ar    1  UNL1        0.0366
     23 C         142.9295  135.1465  154.4940 C.ar    1  UNL1        0.0002
     24 C         143.0478  133.8356  155.2133 C.ar    1  UNL1       -0.0059
     25 C         143.2110  133.8102  156.7041 C.ar    1  UNL1        0.0002
     26 C         143.2559  135.0957  157.4757 C.ar    1  UNL1        0.0366
     27 C         143.0029  132.5500  154.4417 C.3     1  UNL1        0.0991
     28 N         143.3008  131.2511  155.1305 N.3     1  UNL1       -0.2690
     29 C         142.2870  130.2895  155.6757 C.3     1  UNL1        0.0724
     30 C         143.0244  129.1300  156.2771 C.3     1  UNL1        0.0188
     31 C         144.4941  129.3750  156.1035 C.3     1  UNL1        0.0188
     32 C         144.6649  130.6860  155.3949 C.3     1  UNL1        0.0724
@<TRIPOS>BOND
     1     1     2    2
     2     2     9    1
     3     9    10   ar
     4    10    11   ar
     5    11    14    1
     6    14    15   ar
     7    15    16   ar
     8    16    17   ar
     9    17    18   ar
    10    18    19   ar
    11    11    12   ar
    12    12    13   ar
    13     2     3   am
    14     3     4    1
    15     4     5    1
    16     5     6    1
    17     6    20    1
    18    20    21    1
    19    21    22   ar
    20    22    23   ar
    21    23    24   ar
    22    24    27    1
    23    27    28    1
    24    28    29    1
    25    29    30    1
    26    30    31    1
    27    31    32    1
    28    24    25   ar
    29    25    26   ar
    30     6     7    1
    31     7     8    1
    32    13     9   ar
    33     8     3    1
    34    19    14   ar
    35    26    21   ar
    36    32    28    1
@<TRIPOS>MOLECULE
*****
 32 36 0 0 0
SMALL
GASTEIGER

@<TRIPOS>ATOM
      1 O         143.9105  139.4679  158.9186 O.2     1  UNL1       -0.2647
      2 C         142.5727  138.7894  158.9140 C.2     1  UNL1        0.3054
      3 N         141.5433  139.1541  159.9423 N.am    1  UNL1       -0.2719
      4 C         140.2056  138.4756  159.9377 C.3     1  UNL1        0.0976
      5 C         139.1762  138.8402  160.9660 C.3     1  UNL1        0.0651
      6 C         139.4846  139.8833  161.9989 C.3     1  UNL1        0.1693
      7 C         140.8224  140.5618  162.0035 C.3     1  UNL1        0.0651
      8 C         141.8518  140.1971  160.9752 C.3     1  UNL1        0.0976
      9 C         142.2643  137.7464  157.8811 C.ar    1  UNL1        0.3139
     10 N         143.0208  136.4694  157.6643 N.ar    1  UNL1       -0.1831
     11 C         142.3693  135.7310  156.5329 C.ar    1  UNL1        0.2037
     12 N         141.2100  136.5516  156.0503 N.ar    1  UNL1       -0.0554
     13 O         141.1451  137.7972  156.8835 O.2     1  UNL1       -0.3276
     14 C         142.8011  134.4047  155.9808 C.ar    1  UNL1        0.0391
     15 C         142.0911  133.8180  154.7970 C.ar    1  UNL1        0.0032
     16 C         142.5229  132.4919  154.2450 C.ar    1  UNL1        0.0001
     17 C         143.6648  131.7524  154.8769 C.ar    1  UNL1        0.0000
     18 C         144.3749  132.3391  156.0607 C.ar    1  UNL1        0.0001
     19 C         143.9430  133.6653  156.6127 C.ar    1  UNL1        0.0032
     20 O         138.4552  140.2479  163.0273 O.3     1  UNL1       -0.4791
     21 C         138.8348  140.3173  164.4768 C.ar    1  UNL1        0.1384
     22 C         138.4476  139.2065  165.4075 C.ar    1  UNL1        0.0366
     23 C         138.8273  139.2760  166.8569 C.ar    1  UNL1        0.0002
     24 C         139.5941  140.4561  167.3757 C.ar    1  UNL1       -0.0059
     25 C         139.9813  141.5669  166.4450 C.ar    1  UNL1        0.0002
     26 C         139.6016  141.4975  164.9955 C.ar    1  UNL1        0.0366
     27 C         139.9738  140.5256  168.8252 C.3     1  UNL1        0.0991
     28 N         141.1601  141.3385  169.2517 N.3     1  UNL1       -0.2690
     29 C         142.5974  141.0180  168.9660 C.3     1  UNL1        0.0724
     30 C         143.4429  142.0961  169.5764 C.3     1  UNL1        0.0188
     31 C         142.5283  143.0830  170.2394 C.3     1  UNL1        0.0188
     32 C         141.1174  142.6148  170.0387 C.3     1  UNL1        0.0724
@<TRIPOS>BOND
     1     1     2    2
     2     2     9    1
     3     9    10   ar
     4    10    11   ar
     5    11    14    1
     6    14    15   ar
     7    15    16   ar
     8    16    17   ar
     9    17    18   ar
    10    18    19   ar
    11    11    12   ar
    12    12    13   ar
    13     2     3   am
    14     3     4    1
    15     4     5    1
    16     5     6    1
    17     6    20    1
    18    20    21    1
    19    21    22   ar
    20    22    23   ar
    21    23    24   ar
    22    24    27    1
    23    27    28    1
    24    28    29    1
    25    29    30    1
    26    30    31    1
    27    31    32    1
    28    24    25   ar
    29    25    26   ar
    30     6     7    1
    31     7     8    1
    32    13     9   ar
    33     8     3    1
    34    19    14   ar
    35    26    21   ar
    36    32    28    1
@<TRIPOS>MOLECULE
*****
 32 36 0 0 0
SMALL
GASTEIGER

@<TRIPOS>ATOM
      1 O         140.0799  140.3101  156.3454 O.2     1  UNL1       -0.2647
      2 C         140.3892  139.3037  157.4137 C.2     1  UNL1        0.3054
      3 N         139.7159  139.3983  158.7508 N.am    1  UNL1       -0.2719
      4 C         140.0253  138.3919  159.8191 C.3     1  UNL1        0.0976
      5 C         139.3519  138.4865  161.1562 C.3     1  UNL1        0.0651
      6 C         138.3692  139.5875  161.4248 C.3     1  UNL1        0.1693
      7 C         138.0598  140.5938  160.3564 C.3     1  UNL1        0.0651
      8 C         138.7332  140.4993  159.0194 C.3     1  UNL1        0.0976
      9 C         141.3720  138.2027  157.1451 C.ar    1  UNL1        0.3139
     10 N         141.0489  136.8506  156.5818 N.ar    1  UNL1       -0.1831
     11 C         142.3275  136.0728  156.4812 C.ar    1  UNL1        0.2037
     12 N         143.4409  136.9443  156.9823 N.ar    1  UNL1       -0.0554
     13 O         142.8503  138.2607  157.3926 O.2     1  UNL1       -0.3276
     14 C         142.4682  134.6698  155.9693 C.ar    1  UNL1        0.0391
     15 C         143.7606  133.9307  156.1524 C.ar    1  UNL1        0.0032
     16 C         143.9012  132.5278  155.6406 C.ar    1  UNL1        0.0001
     17 C         142.7495  131.8640  154.9456 C.ar    1  UNL1        0.0000
     18 C         141.4571  132.6031  154.7626 C.ar    1  UNL1        0.0001
     19 C         141.3165  134.0060  155.2744 C.ar    1  UNL1        0.0032
     20 O         137.6958  139.6820  162.7619 O.3     1  UNL1       -0.4791
     21 C         138.5163  139.8729  164.0030 C.ar    1  UNL1        0.1384
     22 C         138.1351  139.1664  165.2701 C.ar    1  UNL1        0.0366
     23 C         138.9556  139.3573  166.5112 C.ar    1  UNL1        0.0002
     24 C         140.1573  140.2547  166.4851 C.ar    1  UNL1       -0.0059
     25 C         140.5385  140.9611  165.2181 C.ar    1  UNL1        0.0002
     26 C         139.7180  140.7702  163.9770 C.ar    1  UNL1        0.0366
     27 C         140.9779  140.4456  167.7263 C.3     1  UNL1        0.0991
     28 N         140.6313  141.5382  168.6938 N.3     1  UNL1       -0.2690
     29 C         141.0552  142.9734  168.5918 C.3     1  UNL1        0.0724
     30 C         140.4859  143.7096  169.7681 C.3     1  UNL1        0.0188
     31 C         139.7100  142.7294  170.5972 C.3     1  UNL1        0.0188
     32 C         139.7999  141.3874  169.9332 C.3     1  UNL1        0.0724
@<TRIPOS>BOND
     1     1     2    2
     2     2     9    1
     3     9    10   ar
     4    10    11   ar
     5    11    14    1
     6    14    15   ar
     7    15    16   ar
     8    16    17   ar
     9    17    18   ar
    10    18    19   ar
    11    11    12   ar
    12    12    13   ar
    13     2     3   am
    14     3     4    1
    15     4     5    1
    16     5     6    1
    17     6    20    1
    18    20    21    1
    19    21    22   ar
    20    22    23   ar
    21    23    24   ar
    22    24    27    1
    23    27    28    1
    24    28    29    1
    25    29    30    1
    26    30    31    1
    27    31    32    1
    28    24    25   ar
    29    25    26   ar
    30     6     7    1
    31     7     8    1
    32    13     9   ar
    33     8     3    1
    34    19    14   ar
    35    26    21   ar
    36    32    28    1
@<TRIPOS>MOLECULE
*****
 32 36 0 0 0
SMALL
GASTEIGER

@<TRIPOS>ATOM
      1 O         138.6307  137.3462  165.3132 O.2     1  UNL1       -0.2647
      2 C         139.6871  138.2615  164.7689 C.2     1  UNL1        0.3054
      3 N         139.7613  138.5284  163.2947 N.am    1  UNL1       -0.2719
      4 C         140.8177  139.4437  162.7505 C.3     1  UNL1        0.0976
      5 C         140.8919  139.7105  161.2763 C.3     1  UNL1        0.0651
      6 C         139.9097  139.0621  160.3464 C.3     1  UNL1        0.1693
      7 C         138.8532  138.1469  160.8906 C.3     1  UNL1        0.0651
      8 C         138.7790  137.8800  162.3648 C.3     1  UNL1        0.0976
      9 C         140.6694  138.9099  165.6989 C.ar    1  UNL1        0.3139
     10 N         140.3837  140.0556  166.6240 N.ar    1  UNL1       -0.1831
     11 C         141.6475  140.3802  167.3638 C.ar    1  UNL1        0.2037
     12 N         142.7143  139.4351  166.8960 N.ar    1  UNL1       -0.0554
     13 O         142.1098  138.5264  165.8670 O.2     1  UNL1       -0.3276
     14 C         141.8152  141.4603  168.3912 C.ar    1  UNL1        0.0391
     15 C         140.6790  142.3923  168.6918 C.ar    1  UNL1        0.0032
     16 C         140.8467  143.4724  169.7191 C.ar    1  UNL1        0.0001
     17 C         142.1506  143.6203  170.4458 C.ar    1  UNL1        0.0000
     18 C         143.2867  142.6883  170.1451 C.ar    1  UNL1        0.0001
     19 C         143.1190  141.6083  169.1178 C.ar    1  UNL1        0.0032
     20 O         139.9839  139.3291  158.8721 O.3     1  UNL1       -0.4791
     21 C         140.6475  138.3377  157.9629 C.ar    1  UNL1        0.1384
     22 C         139.8662  137.6962  156.8547 C.ar    1  UNL1        0.0366
     23 C         140.5299  136.7048  155.9456 C.ar    1  UNL1        0.0002
     24 C         141.9749  136.3549  156.1446 C.ar    1  UNL1       -0.0059
     25 C         142.7561  136.9963  157.2527 C.ar    1  UNL1        0.0002
     26 C         142.0925  137.9877  158.1619 C.ar    1  UNL1        0.0366
     27 C         142.6386  135.3634  155.2353 C.3     1  UNL1        0.0991
     28 N         142.7827  133.9329  155.6631 N.3     1  UNL1       -0.2690
     29 C         141.7525  132.8553  155.4981 C.3     1  UNL1        0.0724
     30 C         142.3154  131.5853  156.0639 C.3     1  UNL1        0.0188
     31 C         143.6936  131.8780  156.5786 C.3     1  UNL1        0.0188
     32 C         143.9825  133.3289  156.3309 C.3     1  UNL1        0.0724
@<TRIPOS>BOND
     1     1     2    2
     2     2     9    1
     3     9    10   ar
     4    10    11   ar
     5    11    14    1
     6    14    15   ar
     7    15    16   ar
     8    16    17   ar
     9    17    18   ar
    10    18    19   ar
    11    11    12   ar
    12    12    13   ar
    13     2     3   am
    14     3     4    1
    15     4     5    1
    16     5     6    1
    17     6    20    1
    18    20    21    1
    19    21    22   ar
    20    22    23   ar
    21    23    24   ar
    22    24    27    1
    23    27    28    1
    24    28    29    1
    25    29    30    1
    26    30    31    1
    27    31    32    1
    28    24    25   ar
    29    25    26   ar
    30     6     7    1
    31     7     8    1
    32    13     9   ar
    33     8     3    1
    34    19    14   ar
    35    26    21   ar
    36    32    28    1
@<TRIPOS>MOLECULE
*****
 32 36 0 0 0
SMALL
GASTEIGER

@<TRIPOS>ATOM
      1 O         144.4810  142.0186  159.4216 O.2     1  UNL1       -0.2647
      2 C         143.4412  142.9491  159.9719 C.2     1  UNL1        0.3054
      3 N         142.3888  143.5174  159.0666 N.am    1  UNL1       -0.2719
      4 C         141.3490  144.4480  159.6169 C.3     1  UNL1        0.0976
      5 C         140.2966  145.0162  158.7117 C.3     1  UNL1        0.0651
      6 C         140.2840  144.6539  157.2561 C.3     1  UNL1        0.1693
      7 C         141.3239  143.7234  156.7058 C.3     1  UNL1        0.0651
      8 C         142.3763  143.1551  157.6111 C.3     1  UNL1        0.0976
      9 C         143.4538  143.3114  161.4274 C.ar    1  UNL1        0.3139
     10 N         142.6687  142.6343  162.5114 N.ar    1  UNL1       -0.1831
     11 C         142.9834  143.3188  163.8084 C.ar    1  UNL1        0.2037
     12 N         143.9631  144.4191  163.5261 N.ar    1  UNL1       -0.0554
     13 O         144.2538  144.4146  162.0546 O.2     1  UNL1       -0.3276
     14 C         142.4178  142.9652  165.1520 C.ar    1  UNL1        0.0391
     15 C         140.9479  143.1159  165.4102 C.ar    1  UNL1        0.0032
     16 C         140.3823  142.7623  166.7537 C.ar    1  UNL1        0.0001
     17 C         141.2866  142.2580  167.8390 C.ar    1  UNL1        0.0000
     18 C         142.7565  142.1073  167.5808 C.ar    1  UNL1        0.0001
     19 C         143.3221  142.4609  166.2373 C.ar    1  UNL1        0.0032
     20 O         139.2316  145.2222  156.3509 O.3     1  UNL1       -0.4791
     21 C         139.5287  146.4402  155.5273 C.ar    1  UNL1        0.1384
     22 C         140.3895  146.3268  154.3041 C.ar    1  UNL1        0.0366
     23 C         140.6865  147.5447  153.4805 C.ar    1  UNL1        0.0002
     24 C         140.1229  148.8761  153.8801 C.ar    1  UNL1       -0.0059
     25 C         139.2621  148.9895  155.1033 C.ar    1  UNL1        0.0002
     26 C         138.9650  147.7715  155.9269 C.ar    1  UNL1        0.0366
     27 C         140.4200  150.0941  153.0565 C.3     1  UNL1        0.0991
     28 N         141.7399  150.7923  153.1992 N.3     1  UNL1       -0.2690
     29 C         142.8728  150.7454  152.2172 C.3     1  UNL1        0.0724
     30 C         143.9917  151.5840  152.7600 C.3     1  UNL1        0.0188
     31 C         143.5504  152.1492  154.0775 C.3     1  UNL1        0.0188
     32 C         142.1587  151.6599  154.3490 C.3     1  UNL1        0.0724
@<TRIPOS>BOND
     1     1     2    2
     2     2     9    1
     3     9    10   ar
     4    10    11   ar
     5    11    14    1
     6    14    15   ar
     7    15    16   ar
     8    16    17   ar
     9    17    18   ar
    10    18    19   ar
    11    11    12   ar
    12    12    13   ar
    13     2     3   am
    14     3     4    1
    15     4     5    1
    16     5     6    1
    17     6    20    1
    18    20    21    1
    19    21    22   ar
    20    22    23   ar
    21    23    24   ar
    22    24    27    1
    23    27    28    1
    24    28    29    1
    25    29    30    1
    26    30    31    1
    27    31    32    1
    28    24    25   ar
    29    25    26   ar
    30     6     7    1
    31     7     8    1
    32    13     9   ar
    33     8     3    1
    34    19    14   ar
    35    26    21   ar
    36    32    28    1
@<TRIPOS>MOLECULE
*****
 32 36 0 0 0
SMALL
GASTEIGER

@<TRIPOS>ATOM
      1 O         144.8428  137.5153  155.7438 O.2     1  UNL1       -0.2647
      2 C         143.5305  136.8159  155.9404 C.2     1  UNL1        0.3054
      3 N         142.3296  137.5895  156.3979 N.am    1  UNL1       -0.2719
      4 C         141.0172  136.8901  156.5945 C.3     1  UNL1        0.0976
      5 C         139.8163  137.6636  157.0520 C.3     1  UNL1        0.0651
      6 C         139.9277  139.1366  157.3129 C.3     1  UNL1        0.1693
      7 C         141.2400  139.8360  157.1163 C.3     1  UNL1        0.0651
      8 C         142.4409  139.0624  156.6588 C.3     1  UNL1        0.0976
      9 C         143.4191  135.3430  155.6795 C.ar    1  UNL1        0.3139
     10 N         143.7108  134.2488  156.6631 N.ar    1  UNL1       -0.1831
     11 C         143.4685  132.9352  155.9807 C.ar    1  UNL1        0.2037
     12 N         143.0270  133.2176  154.5752 N.ar    1  UNL1       -0.0554
     13 O         142.9965  134.7056  154.3890 O.2     1  UNL1       -0.3276
     14 C         143.6379  131.5776  156.5957 C.ar    1  UNL1        0.0391
     15 C         142.8046  130.4269  156.1144 C.ar    1  UNL1        0.0032
     16 C         142.9740  129.0694  156.7295 C.ar    1  UNL1        0.0001
     17 C         143.9767  128.8625  157.8257 C.ar    1  UNL1        0.0000
     18 C         144.8100  130.0131  158.3070 C.ar    1  UNL1        0.0001
     19 C         144.6406  131.3707  157.6920 C.ar    1  UNL1        0.0032
     20 O         138.7267  139.9101  157.7705 O.3     1  UNL1       -0.4791
     21 C         138.5303  140.1965  159.2297 C.ar    1  UNL1        0.1384
     22 C         138.3748  141.6117  159.7020 C.ar    1  UNL1        0.0366
     23 C         138.1785  141.8981  161.1612 C.ar    1  UNL1        0.0002
     24 C         138.1376  140.7692  162.1482 C.ar    1  UNL1       -0.0059
     25 C         138.2931  139.3541  161.6759 C.ar    1  UNL1        0.0002
     26 C         138.4894  139.0677  160.2167 C.ar    1  UNL1        0.0366
     27 C         137.9412  141.0556  163.6075 C.3     1  UNL1        0.0991
     28 N         138.5278  142.2958  164.2140 N.3     1  UNL1       -0.2690
     29 C         137.7963  143.5779  164.4805 C.3     1  UNL1        0.0724
     30 C         138.7653  144.5461  165.0916 C.3     1  UNL1        0.0188
     31 C         140.0958  143.8624  165.2029 C.3     1  UNL1        0.0188
     32 C         139.9491  142.4717  164.6605 C.3     1  UNL1        0.0724
@<TRIPOS>BOND
     1     1     2    2
     2     2     9    1
     3     9    10   ar
     4    10    11   ar
     5    11    14    1
     6    14    15   ar
     7    15    16   ar
     8    16    17   ar
     9    17    18   ar
    10    18    19   ar
    11    11    12   ar
    12    12    13   ar
    13     2     3   am
    14     3     4    1
    15     4     5    1
    16     5     6    1
    17     6    20    1
    18    20    21    1
    19    21    22   ar
    20    22    23   ar
    21    23    24   ar
    22    24    27    1
    23    27    28    1
    24    28    29    1
    25    29    30    1
    26    30    31    1
    27    31    32    1
    28    24    25   ar
    29    25    26   ar
    30     6     7    1
    31     7     8    1
    32    13     9   ar
    33     8     3    1
    34    19    14   ar
    35    26    21   ar
    36    32    28    1
@<TRIPOS>MOLECULE
*****
 32 36 0 0 0
SMALL
GASTEIGER

@<TRIPOS>ATOM
      1 O         144.5422  140.2524  155.1843 O.2     1  UNL1       -0.2647
      2 C         143.9153  139.7690  156.4583 C.2     1  UNL1        0.3054
      3 N         144.0725  140.5643  157.7204 N.am    1  UNL1       -0.2719
      4 C         143.4456  140.0809  158.9944 C.3     1  UNL1        0.0976
      5 C         143.6027  140.8762  160.2565 C.3     1  UNL1        0.0651
      6 C         144.3868  142.1549  160.2444 C.3     1  UNL1        0.1693
      7 C         145.0138  142.6383  158.9703 C.3     1  UNL1        0.0651
      8 C         144.8566  141.8430  157.7083 C.3     1  UNL1        0.0976
      9 C         143.1312  138.4903  156.4704 C.ar    1  UNL1        0.3139
     10 N         143.7042  137.1044  156.4396 N.ar    1  UNL1       -0.1831
     11 C         142.5636  136.1306  156.4655 C.ar    1  UNL1        0.2037
     12 N         141.2857  136.9146  156.5124 N.ar    1  UNL1       -0.0554
     13 O         141.6364  138.3730  156.5154 O.2     1  UNL1       -0.3276
     14 C         142.6804  134.6352  156.4477 C.ar    1  UNL1        0.0391
     15 C         141.7638  133.8215  155.5830 C.ar    1  UNL1        0.0032
     16 C         141.8806  132.3262  155.5653 C.ar    1  UNL1        0.0001
     17 C         142.9140  131.6445  156.4122 C.ar    1  UNL1        0.0000
     18 C         143.8306  132.4582  157.2769 C.ar    1  UNL1        0.0001
     19 C         143.7138  133.9535  157.2947 C.ar    1  UNL1        0.0032
     20 O         144.5440  142.9503  161.5066 O.3     1  UNL1       -0.4791
     21 C         144.0762  142.3827  162.8138 C.ar    1  UNL1        0.1384
     22 C         142.9048  142.9966  163.5218 C.ar    1  UNL1        0.0366
     23 C         142.4371  142.4290  164.8290 C.ar    1  UNL1        0.0002
     24 C         143.1407  141.2476  165.4284 C.ar    1  UNL1       -0.0059
     25 C         144.3119  140.6337  164.7205 C.ar    1  UNL1        0.0002
     26 C         144.7797  141.2013  163.4132 C.ar    1  UNL1        0.0366
     27 C         142.6729  140.6800  166.7357 C.3     1  UNL1        0.0991
     28 N         142.2017  141.5966  167.8257 N.3     1  UNL1       -0.2690
     29 C         143.0491  142.1721  168.9214 C.3     1  UNL1        0.0724
     30 C         142.1716  143.0298  169.7841 C.3     1  UNL1        0.0188
     31 C         140.7818  142.9843  169.2215 C.3     1  UNL1        0.0188
     32 C         140.8003  142.0985  168.0112 C.3     1  UNL1        0.0724
@<TRIPOS>BOND
     1     1     2    2
     2     2     9    1
     3     9    10   ar
     4    10    11   ar
     5    11    14    1
     6    14    15   ar
     7    15    16   ar
     8    16    17   ar
     9    17    18   ar
    10    18    19   ar
    11    11    12   ar
    12    12    13   ar
    13     2     3   am
    14     3     4    1
    15     4     5    1
    16     5     6    1
    17     6    20    1
    18    20    21    1
    19    21    22   ar
    20    22    23   ar
    21    23    24   ar
    22    24    27    1
    23    27    28    1
    24    28    29    1
    25    29    30    1
    26    30    31    1
    27    31    32    1
    28    24    25   ar
    29    25    26   ar
    30     6     7    1
    31     7     8    1
    32    13     9   ar
    33     8     3    1
    34    19    14   ar
    35    26    21   ar
    36    32    28    1
@<TRIPOS>MOLECULE
*****
 32 36 0 0 0
SMALL
GASTEIGER

@<TRIPOS>ATOM
      1 O         137.7725  139.9202  159.0541 O.2     1  UNL1       -0.2647
      2 C         139.0981  139.7090  159.7235 C.2     1  UNL1        0.3054
      3 N         140.1836  138.9535  159.0158 N.am    1  UNL1       -0.2719
      4 C         141.5093  138.7423  159.6852 C.3     1  UNL1        0.0976
      5 C         142.5948  137.9868  158.9776 C.3     1  UNL1        0.0651
      6 C         142.3548  137.4425  157.6006 C.3     1  UNL1        0.1693
      7 C         141.0292  137.6537  156.9312 C.3     1  UNL1        0.0651
      8 C         139.9436  138.4092  157.6388 C.3     1  UNL1        0.0976
      9 C         139.3381  140.2532  161.1005 C.ar    1  UNL1        0.3139
     10 N         138.9890  139.5726  162.3908 N.ar    1  UNL1       -0.1831
     11 C         139.4045  140.4724  163.5167 C.ar    1  UNL1        0.2037
     12 N         140.0105  141.7092  162.9222 N.ar    1  UNL1       -0.0554
     13 O         139.9694  141.5737  161.4289 O.2     1  UNL1       -0.3276
     14 C         139.2426  140.1858  164.9802 C.ar    1  UNL1        0.0391
     15 C         138.2263  139.1830  165.4401 C.ar    1  UNL1        0.0032
     16 C         138.0644  138.8965  166.9035 C.ar    1  UNL1        0.0001
     17 C         138.9188  139.6127  167.9070 C.ar    1  UNL1        0.0000
     18 C         139.9351  140.6155  167.4471 C.ar    1  UNL1        0.0001
     19 C         140.0970  140.9020  165.9837 C.ar    1  UNL1        0.0032
     20 O         143.4405  136.6870  156.8930 O.3     1  UNL1       -0.4791
     21 C         143.1446  135.3537  156.2726 C.ar    1  UNL1        0.1384
     22 C         143.1553  134.1144  157.1176 C.ar    1  UNL1        0.0366
     23 C         142.8594  132.7812  156.4972 C.ar    1  UNL1        0.0002
     24 C         142.5528  132.6873  155.0319 C.ar    1  UNL1       -0.0059
     25 C         142.5421  133.9265  154.1870 C.ar    1  UNL1        0.0002
     26 C         142.8380  135.2598  154.8073 C.ar    1  UNL1        0.0366
     27 C         142.2569  131.3540  154.4115 C.3     1  UNL1        0.0991
     28 N         143.3637  130.3646  154.1965 N.3     1  UNL1       -0.2690
     29 C         143.9962  129.5062  155.2515 C.3     1  UNL1        0.0724
     30 C         145.0557  128.6710  154.5958 C.3     1  UNL1        0.0188
     31 C         145.0780  129.0133  153.1355 C.3     1  UNL1        0.0188
     32 C         144.0323  130.0600  152.8887 C.3     1  UNL1        0.0724
@<TRIPOS>BOND
     1     1     2    2
     2     2     9    1
     3     9    10   ar
     4    10    11   ar
     5    11    14    1
     6    14    15   ar
     7    15    16   ar
     8    16    17   ar
     9    17    18   ar
    10    18    19   ar
    11    11    12   ar
    12    12    13   ar
    13     2     3   am
    14     3     4    1
    15     4     5    1
    16     5     6    1
    17     6    20    1
    18    20    21    1
    19    21    22   ar
    20    22    23   ar
    21    23    24   ar
    22    24    27    1
    23    27    28    1
    24    28    29    1
    25    29    30    1
    26    30    31    1
    27    31    32    1
    28    24    25   ar
    29    25    26   ar
    30     6     7    1
    31     7     8    1
    32    13     9   ar
    33     8     3    1
    34    19    14   ar
    35    26    21   ar
    36    32    28    1
