@<TRIPOS>MOLECULE
*****
 28 31 0 0 0
SMALL
GASTEIGER

@<TRIPOS>ATOM
      1 C         141.2830  142.2687  166.1967 C.2     1  UNL1        0.0020
      2 C         140.7793  142.7866  167.5113 C.2     1  UNL1        0.0143
      3 C         141.0337  142.0113  168.7700 C.3     1  UNL1        0.1672
      4 C         141.2105  141.3496  170.1045 C.3     1  UNL1        0.0628
      5 C         140.5508  142.2112  171.1401 C.3     1  UNL1        0.0727
      6 N         139.9663  143.4054  170.4456 N.3     1  UNL1       -0.2942
      7 C         140.2647  143.2819  168.9808 C.3     1  UNL1        0.1135
      8 O         141.7917  140.7182  168.7141 O.3     1  UNL1       -0.4771
      9 C         142.2954  140.2003  167.3995 C.ar    1  UNL1        0.1386
     10 C         143.0535  138.9071  167.3437 C.ar    1  UNL1        0.0369
     11 C         143.5572  138.3892  166.0292 C.ar    1  UNL1        0.0031
     12 C         143.3028  139.1645  164.7705 C.ar    1  UNL1        0.0002
     13 C         142.5448  140.4576  164.8263 C.ar    1  UNL1        0.0030
     14 C         142.0411  140.9756  166.1408 C.ar    1  UNL1        0.0338
     15 H         140.3856  144.2593  170.8135 H       1  UNL1        0.1234
     16 C         140.5201  144.5946  162.4207 C.ar    1  UNL1        0.0536
     17 C         141.7710  144.8382  163.2119 C.ar    1  UNL1        0.0045
     18 C         142.0253  144.0630  164.4706 C.ar    1  UNL1        0.0001
     19 C         141.0287  143.0440  164.9381 C.ar    1  UNL1       -0.0001
     20 C         139.7779  142.8003  164.1469 C.ar    1  UNL1        0.0001
     21 C         139.5235  143.5756  162.8882 C.ar    1  UNL1        0.0045
     22 N         140.9611  144.9840  159.8901 N.am    1  UNL1       -0.2761
     23 C         140.2657  145.3698  161.1620 C.2     1  UNL1        0.2490
     24 O         139.3160  146.5308  161.1752 O.2     1  UNL1       -0.2699
     25 C         141.7311  145.7674  157.5357 C.3     1  UNL1        0.0233
     26 C         140.7068  145.7593  158.6315 C.3     1  UNL1        0.0938
     27 C         141.9108  143.8230  159.8770 C.3     1  UNL1        0.0938
     28 C         141.4124  142.4504  159.5343 C.3     1  UNL1        0.0233
@<TRIPOS>BOND
     1    25    26    1
     2    26    22    1
     3    22    27    1
     4    27    28    1
     5    22    23   am
     6    23    24    2
     7    23    16    1
     8    16    17   ar
     9    17    18   ar
    10    18    19   ar
    11    19     1    1
    12     1     2    2
    13     2     3    1
    14     3     4    1
    15     4     5    1
    16     5     6    1
    17     6     7    1
    18     3     8    1
    19     8     9    1
    20     9    10   ar
    21    10    11   ar
    22    11    12   ar
    23    12    13   ar
    24    13    14   ar
    25    19    20   ar
    26    20    21   ar
    27    21    16   ar
    28    14     1    1
    29     7     3    1
    30    14     9   ar
    31     6    15    1
@<TRIPOS>MOLECULE
*****
 28 31 0 0 0
SMALL
GASTEIGER

@<TRIPOS>ATOM
      1 C         139.7668  142.2148  166.0601 C.2     1  UNL1        0.0020
      2 C         140.1787  142.7783  167.3878 C.2     1  UNL1        0.0143
      3 C         140.1325  141.9171  168.6151 C.3     1  UNL1        0.1672
      4 C         140.1391  141.1806  169.9218 C.3     1  UNL1        0.0628
      5 C         140.6209  142.1244  170.9834 C.3     1  UNL1        0.0727
      6 N         140.9121  143.4443  170.3328 N.3     1  UNL1       -0.2942
      7 C         140.6102  143.3161  168.8691 C.3     1  UNL1        0.1135
      8 O         139.6744  140.4923  168.5146 O.3     1  UNL1       -0.4771
      9 C         139.2624  139.9288  167.1870 C.ar    1  UNL1        0.1386
     10 C         138.8043  138.5039  167.0866 C.ar    1  UNL1        0.0369
     11 C         138.3923  137.9403  165.7590 C.ar    1  UNL1        0.0031
     12 C         138.4385  138.8016  164.5317 C.ar    1  UNL1        0.0002
     13 C         138.8966  140.2263  164.6321 C.ar    1  UNL1        0.0030
     14 C         139.3086  140.7900  165.9597 C.ar    1  UNL1        0.0338
     15 H         141.8944  143.6855  170.4638 H       1  UNL1        0.1234
     16 C         139.9052  144.7985  162.3783 C.ar    1  UNL1        0.0536
     17 C         138.5843  144.4223  162.9815 C.ar    1  UNL1        0.0045
     18 C         138.5381  143.5611  164.2087 C.ar    1  UNL1        0.0001
     19 C         139.8129  143.0760  164.8329 C.ar    1  UNL1       -0.0001
     20 C         141.1338  143.4521  164.2298 C.ar    1  UNL1        0.0001
     21 C         141.1800  144.3133  163.0026 C.ar    1  UNL1        0.0045
     22 N         140.3041  145.0559  159.8240 N.am    1  UNL1       -0.2761
     23 C         139.9514  145.6597  161.1511 C.2     1  UNL1        0.2490
     24 O         139.6449  147.1246  161.2509 O.2     1  UNL1       -0.2699
     25 C         141.5580  145.8915  157.7076 C.3     1  UNL1        0.0233
     26 C         140.3503  145.9171  158.5968 C.3     1  UNL1        0.0938
     27 C         140.6106  143.5909  159.7243 C.3     1  UNL1        0.0938
     28 C         139.5184  142.6171  159.3944 C.3     1  UNL1        0.0233
@<TRIPOS>BOND
     1    25    26    1
     2    26    22    1
     3    22    27    1
     4    27    28    1
     5    22    23   am
     6    23    24    2
     7    23    16    1
     8    16    17   ar
     9    17    18   ar
    10    18    19   ar
    11    19     1    1
    12     1     2    2
    13     2     3    1
    14     3     4    1
    15     4     5    1
    16     5     6    1
    17     6     7    1
    18     3     8    1
    19     8     9    1
    20     9    10   ar
    21    10    11   ar
    22    11    12   ar
    23    12    13   ar
    24    13    14   ar
    25    19    20   ar
    26    20    21   ar
    27    21    16   ar
    28    14     1    1
    29     7     3    1
    30    14     9   ar
    31     6    15    1
@<TRIPOS>MOLECULE
*****
 28 31 0 0 0
SMALL
GASTEIGER

@<TRIPOS>ATOM
      1 C         140.4302  142.4045  162.7079 C.2     1  UNL1        0.0020
      2 C         140.8895  143.5501  161.8554 C.2     1  UNL1        0.0143
      3 C         140.3868  143.6870  160.4488 C.3     1  UNL1        0.1672
      4 C         139.9726  143.9531  159.0319 C.3     1  UNL1        0.0628
      5 C         140.6708  145.1981  158.5710 C.3     1  UNL1        0.0727
      6 N         141.5165  145.7015  159.7031 N.3     1  UNL1       -0.2942
      7 C         141.3410  144.7675  160.8636 C.3     1  UNL1        0.1135
      8 O         139.4248  142.6783  159.8947 O.3     1  UNL1       -0.4771
      9 C         138.9654  141.5328  160.7472 C.ar    1  UNL1        0.1386
     10 C         138.0034  140.5241  160.1930 C.ar    1  UNL1        0.0369
     11 C         137.5440  139.3785  161.0455 C.ar    1  UNL1        0.0031
     12 C         138.0467  139.2417  162.4521 C.ar    1  UNL1        0.0002
     13 C         139.0088  140.2503  163.0062 C.ar    1  UNL1        0.0030
     14 C         139.4681  141.3959  162.1538 C.ar    1  UNL1        0.0338
     15 H         141.2187  146.6408  159.9666 H       1  UNL1        0.1234
     16 C         141.9384  141.9938  166.9278 C.ar    1  UNL1        0.0536
     17 C         142.6485  141.2955  165.8061 C.ar    1  UNL1        0.0045
     18 C         142.1458  141.4324  164.3995 C.ar    1  UNL1        0.0001
     19 C         140.9329  142.2677  164.1145 C.ar    1  UNL1       -0.0001
     20 C         140.2227  142.9659  165.2361 C.ar    1  UNL1        0.0001
     21 C         140.7255  142.8290  166.6427 C.ar    1  UNL1        0.0045
     22 N         141.7705  140.9062  169.2812 N.am    1  UNL1       -0.2761
     23 C         142.4411  141.8569  168.3344 C.2     1  UNL1        0.2490
     24 O         143.6143  142.6707  168.7940 O.2     1  UNL1       -0.2699
     25 C         143.3055  139.7322  171.0178 C.3     1  UNL1        0.0233
     26 C         142.2732  140.7693  170.6878 C.3     1  UNL1        0.0938
     27 C         140.5973  140.0925  168.8215 C.3     1  UNL1        0.0938
     28 C         139.2370  140.3436  169.4017 C.3     1  UNL1        0.0233
@<TRIPOS>BOND
     1    25    26    1
     2    26    22    1
     3    22    27    1
     4    27    28    1
     5    22    23   am
     6    23    24    2
     7    23    16    1
     8    16    17   ar
     9    17    18   ar
    10    18    19   ar
    11    19     1    1
    12     1     2    2
    13     2     3    1
    14     3     4    1
    15     4     5    1
    16     5     6    1
    17     6     7    1
    18     3     8    1
    19     8     9    1
    20     9    10   ar
    21    10    11   ar
    22    11    12   ar
    23    12    13   ar
    24    13    14   ar
    25    19    20   ar
    26    20    21   ar
    27    21    16   ar
    28    14     1    1
    29     7     3    1
    30    14     9   ar
    31     6    15    1
@<TRIPOS>MOLECULE
*****
 28 31 0 0 0
SMALL
GASTEIGER

@<TRIPOS>ATOM
      1 C         141.7297  141.0370  166.2701 C.2     1  UNL1        0.0020
      2 C         142.4369  141.6759  167.4284 C.2     1  UNL1        0.0143
      3 C         141.8630  141.5671  168.8100 C.3     1  UNL1        0.1672
      4 C         141.4123  141.5426  170.2404 C.3     1  UNL1        0.0628
      5 C         142.4158  142.3030  171.0557 C.3     1  UNL1        0.0727
      6 N         143.4868  142.7975  170.1291 N.3     1  UNL1       -0.2942
      7 C         143.1451  142.3427  168.7412 C.3     1  UNL1        0.1135
      8 O         140.5820  140.8194  169.0332 O.3     1  UNL1       -0.4771
      9 C         139.8748  140.1805  167.8749 C.ar    1  UNL1        0.1386
     10 C         138.5937  139.4328  168.0983 C.ar    1  UNL1        0.0369
     11 C         137.8866  138.7939  166.9400 C.ar    1  UNL1        0.0031
     12 C         138.4604  138.9027  165.5584 C.ar    1  UNL1        0.0002
     13 C         139.7414  139.6504  165.3350 C.ar    1  UNL1        0.0030
     14 C         140.4487  140.2893  166.4933 C.ar    1  UNL1        0.0338
     15 H         144.3896  142.4128  170.4070 H       1  UNL1        0.1234
     16 C         143.4513  141.3635  162.1252 C.ar    1  UNL1        0.0536
     17 C         142.2908  142.2255  162.5254 C.ar    1  UNL1        0.0045
     18 C         141.7169  142.1167  163.9070 C.ar    1  UNL1        0.0001
     19 C         142.3036  141.1458  164.8885 C.ar    1  UNL1       -0.0001
     20 C         143.4641  140.2838  164.4883 C.ar    1  UNL1        0.0001
     21 C         144.0380  140.3926  163.1067 C.ar    1  UNL1        0.0045
     22 N         143.5985  140.5085  159.6762 N.am    1  UNL1       -0.2761
     23 C         144.0252  141.4723  160.7436 C.2     1  UNL1        0.2490
     24 O         145.0257  142.5447  160.4294 O.2     1  UNL1       -0.2699
     25 C         143.4709  139.9692  157.1380 C.3     1  UNL1        0.0233
     26 C         144.1724  140.6173  158.2946 C.3     1  UNL1        0.0938
     27 C         142.5980  139.4361  159.9905 C.3     1  UNL1        0.0938
     28 C         143.0649  138.0541  160.3403 C.3     1  UNL1        0.0233
@<TRIPOS>BOND
     1    25    26    1
     2    26    22    1
     3    22    27    1
     4    27    28    1
     5    22    23   am
     6    23    24    2
     7    23    16    1
     8    16    17   ar
     9    17    18   ar
    10    18    19   ar
    11    19     1    1
    12     1     2    2
    13     2     3    1
    14     3     4    1
    15     4     5    1
    16     5     6    1
    17     6     7    1
    18     3     8    1
    19     8     9    1
    20     9    10   ar
    21    10    11   ar
    22    11    12   ar
    23    12    13   ar
    24    13    14   ar
    25    19    20   ar
    26    20    21   ar
    27    21    16   ar
    28    14     1    1
    29     7     3    1
    30    14     9   ar
    31     6    15    1
@<TRIPOS>MOLECULE
*****
 28 31 0 0 0
SMALL
GASTEIGER

@<TRIPOS>ATOM
      1 C         142.1839  142.1398  162.3824 C.2     1  UNL1        0.0020
      2 C         142.8816  141.2847  161.3665 C.2     1  UNL1        0.0143
      3 C         142.8845  141.6878  159.9217 C.3     1  UNL1        0.1672
      4 C         142.9714  141.9613  158.4494 C.3     1  UNL1        0.0628
      5 C         143.7584  140.8516  157.8176 C.3     1  UNL1        0.0727
      6 N         144.1579  139.8923  158.8994 N.3     1  UNL1       -0.2942
      7 C         143.6178  140.4092  160.1998 C.3     1  UNL1        0.1135
      8 O         142.1897  142.9461  159.4928 O.3     1  UNL1       -0.4771
      9 C         141.4920  143.8012  160.5087 C.ar    1  UNL1        0.1386
     10 C         140.7971  145.0595  160.0796 C.ar    1  UNL1        0.0369
     11 C         140.0994  145.9146  161.0955 C.ar    1  UNL1        0.0031
     12 C         140.0966  145.5115  162.5403 C.ar    1  UNL1        0.0002
     13 C         140.7913  144.2532  162.9693 C.ar    1  UNL1        0.0030
     14 C         141.4891  143.3981  161.9535 C.ar    1  UNL1        0.0338
     15 H         145.1748  139.8290  158.9476 H       1  UNL1        0.1234
     16 C         142.1752  140.9303  166.7168 C.ar    1  UNL1        0.0536
     17 C         141.1646  140.3480  165.7735 C.ar    1  UNL1        0.0045
     18 C         141.1675  140.7511  164.3287 C.ar    1  UNL1        0.0001
     19 C         142.1810  141.7367  163.8272 C.ar    1  UNL1       -0.0001
     20 C         143.1916  142.3189  164.7704 C.ar    1  UNL1        0.0001
     21 C         143.1887  141.9158  166.2152 C.ar    1  UNL1        0.0045
     22 N         141.3894  141.3256  169.1614 N.am    1  UNL1       -0.2761
     23 C         142.1723  140.5271  168.1616 C.2     1  UNL1        0.2490
     24 O         142.9523  139.3257  168.6065 O.2     1  UNL1       -0.2699
     25 C         140.3667  139.9445  171.1100 C.3     1  UNL1        0.0233
     26 C         141.3865  140.9224  170.6062 C.3     1  UNL1        0.0938
     27 C         140.6094  142.5270  168.7164 C.3     1  UNL1        0.0938
     28 C         140.4722  143.7114  169.6267 C.3     1  UNL1        0.0233
@<TRIPOS>BOND
     1    25    26    1
     2    26    22    1
     3    22    27    1
     4    27    28    1
     5    22    23   am
     6    23    24    2
     7    23    16    1
     8    16    17   ar
     9    17    18   ar
    10    18    19   ar
    11    19     1    1
    12     1     2    2
    13     2     3    1
    14     3     4    1
    15     4     5    1
    16     5     6    1
    17     6     7    1
    18     3     8    1
    19     8     9    1
    20     9    10   ar
    21    10    11   ar
    22    11    12   ar
    23    12    13   ar
    24    13    14   ar
    25    19    20   ar
    26    20    21   ar
    27    21    16   ar
    28    14     1    1
    29     7     3    1
    30    14     9   ar
    31     6    15    1
@<TRIPOS>MOLECULE
*****
 28 31 0 0 0
SMALL
GASTEIGER

@<TRIPOS>ATOM
      1 C         141.4537  140.3730  161.6171 C.2     1  UNL1        0.0020
      2 C         142.7629  141.1025  161.6793 C.2     1  UNL1        0.0143
      3 C         143.7395  140.7983  162.7765 C.3     1  UNL1        0.1672
      4 C         144.8097  140.6022  163.8090 C.3     1  UNL1        0.0628
      5 C         145.9400  141.5346  163.4878 C.3     1  UNL1        0.0727
      6 N         145.5682  142.3069  162.2568 N.3     1  UNL1       -0.2942
      7 C         144.2082  141.8519  161.8172 C.3     1  UNL1        0.1135
      8 O         143.4068  139.7647  163.8114 O.3     1  UNL1       -0.4771
      9 C         142.0975  139.0353  163.7491 C.ar    1  UNL1        0.1386
     10 C         141.7650  138.0017  164.7841 C.ar    1  UNL1        0.0369
     11 C         140.4557  137.2723  164.7219 C.ar    1  UNL1        0.0031
     12 C         139.4792  137.5765  163.6247 C.ar    1  UNL1        0.0002
     13 C         139.8118  138.6100  162.5898 C.ar    1  UNL1        0.0030
     14 C         141.1210  139.3395  162.6520 C.ar    1  UNL1        0.0338
     15 H         146.2484  142.1289  161.5179 H       1  UNL1        0.1234
     16 C         138.5239  141.2856  158.3255 C.ar    1  UNL1        0.0536
     17 C         138.4262  142.0058  159.6377 C.ar    1  UNL1        0.0045
     18 C         139.4027  141.7016  160.7349 C.ar    1  UNL1        0.0001
     19 C         140.4771  140.6772  160.5199 C.ar    1  UNL1       -0.0001
     20 C         140.5749  139.9570  159.2078 C.ar    1  UNL1        0.0001
     21 C         139.5984  140.2611  158.1106 C.ar    1  UNL1        0.0045
     22 N         137.7446  142.7988  156.3626 N.am    1  UNL1       -0.2761
     23 C         137.5474  141.5897  157.2283 C.2     1  UNL1        0.2490
     24 O         136.3737  140.6848  156.9968 O.2     1  UNL1       -0.2699
     25 C         137.0297  144.2396  154.3223 C.3     1  UNL1        0.0233
     26 C         136.7681  143.1029  155.2655 C.3     1  UNL1        0.0938
     27 C         138.9184  143.7036  156.5942 C.3     1  UNL1        0.0938
     28 C         140.2345  143.4072  155.9386 C.3     1  UNL1        0.0233
@<TRIPOS>BOND
     1    25    26    1
     2    26    22    1
     3    22    27    1
     4    27    28    1
     5    22    23   am
     6    23    24    2
     7    23    16    1
     8    16    17   ar
     9    17    18   ar
    10    18    19   ar
    11    19     1    1
    12     1     2    2
    13     2     3    1
    14     3     4    1
    15     4     5    1
    16     5     6    1
    17     6     7    1
    18     3     8    1
    19     8     9    1
    20     9    10   ar
    21    10    11   ar
    22    11    12   ar
    23    12    13   ar
    24    13    14   ar
    25    19    20   ar
    26    20    21   ar
    27    21    16   ar
    28    14     1    1
    29     7     3    1
    30    14     9   ar
    31     6    15    1
@<TRIPOS>MOLECULE
*****
 28 31 0 0 0
SMALL
GASTEIGER

@<TRIPOS>ATOM
      1 C         139.5439  140.3237  162.2185 C.2     1  UNL1        0.0020
      2 C         139.1705  141.7759  162.1786 C.2     1  UNL1        0.0143
      3 C         138.4511  142.3974  163.3389 C.3     1  UNL1        0.1672
      4 C         137.7340  143.1533  164.4179 C.3     1  UNL1        0.0628
      5 C         137.5689  144.5718  163.9589 C.3     1  UNL1        0.0727
      6 N         138.1840  144.6925  162.5962 N.3     1  UNL1       -0.2942
      7 C         138.7292  143.3487  162.2130 C.3     1  UNL1        0.1135
      8 O         138.1051  141.5667  164.5390 O.3     1  UNL1       -0.4771
      9 C         138.4785  140.1145  164.5788 C.ar    1  UNL1        0.1386
     10 C         138.1325  139.2838  165.7790 C.ar    1  UNL1        0.0369
     11 C         138.5059  137.8316  165.8188 C.ar    1  UNL1        0.0031
     12 C         139.2253  137.2101  164.6585 C.ar    1  UNL1        0.0002
     13 C         139.5713  138.0407  163.4585 C.ar    1  UNL1        0.0030
     14 C         139.1979  139.4930  163.4185 C.ar    1  UNL1        0.0338
     15 H         138.9381  145.3791  162.6164 H       1  UNL1        0.1234
     16 C         141.7022  138.4591  158.7377 C.ar    1  UNL1        0.0536
     17 C         142.4823  139.0688  159.8646 C.ar    1  UNL1        0.0045
     18 C         141.7629  139.6903  161.0249 C.ar    1  UNL1        0.0001
     19 C         140.2633  139.7022  161.0582 C.ar    1  UNL1       -0.0001
     20 C         139.4832  139.0926  159.9314 C.ar    1  UNL1        0.0001
     21 C         140.2026  138.4711  158.7712 C.ar    1  UNL1        0.0045
     22 N         142.6919  138.6455  156.3428 N.am    1  UNL1       -0.2761
     23 C         142.4216  137.8376  157.5775 C.2     1  UNL1        0.2490
     24 O         142.8706  136.4083  157.6519 O.2     1  UNL1       -0.2699
     25 C         144.8543  138.3491  154.9335 C.3     1  UNL1        0.0233
     26 C         143.4113  138.0239  155.1826 C.3     1  UNL1        0.0938
     27 C         142.2429  140.0747  156.2685 C.3     1  UNL1        0.0938
     28 C         143.1800  141.1768  156.6651 C.3     1  UNL1        0.0233
@<TRIPOS>BOND
     1    25    26    1
     2    26    22    1
     3    22    27    1
     4    27    28    1
     5    22    23   am
     6    23    24    2
     7    23    16    1
     8    16    17   ar
     9    17    18   ar
    10    18    19   ar
    11    19     1    1
    12     1     2    2
    13     2     3    1
    14     3     4    1
    15     4     5    1
    16     5     6    1
    17     6     7    1
    18     3     8    1
    19     8     9    1
    20     9    10   ar
    21    10    11   ar
    22    11    12   ar
    23    12    13   ar
    24    13    14   ar
    25    19    20   ar
    26    20    21   ar
    27    21    16   ar
    28    14     1    1
    29     7     3    1
    30    14     9   ar
    31     6    15    1
@<TRIPOS>MOLECULE
*****
 28 31 0 0 0
SMALL
GASTEIGER

@<TRIPOS>ATOM
      1 C         140.4795  140.9660  162.4510 C.2     1  UNL1        0.0020
      2 C         140.3170  142.4243  162.7623 C.2     1  UNL1        0.0143
      3 C         139.5703  142.8501  163.9916 C.3     1  UNL1        0.1672
      4 C         138.8532  143.4239  165.1775 C.3     1  UNL1        0.0628
      5 C         138.9362  144.9191  165.0905 C.3     1  UNL1        0.0727
      6 N         139.7047  145.2694  163.8508 N.3     1  UNL1       -0.2942
      7 C         140.0966  143.9906  163.1716 C.3     1  UNL1        0.1135
      8 O         138.9861  141.8176  164.9095 O.3     1  UNL1       -0.4771
      9 C         139.1485  140.3593  164.5981 C.ar    1  UNL1        0.1386
     10 C         138.5642  139.3268  165.5161 C.ar    1  UNL1        0.0369
     11 C         138.7266  137.8685  165.2048 C.ar    1  UNL1        0.0031
     12 C         139.4733  137.4427  163.9755 C.ar    1  UNL1        0.0002
     13 C         140.0576  138.4751  163.0576 C.ar    1  UNL1        0.0030
     14 C         139.8952  139.9335  163.3689 C.ar    1  UNL1        0.0338
     15 H         140.5399  145.7993  164.0995 H       1  UNL1        0.1234
     16 C         142.7195  139.6885  158.7631 C.ar    1  UNL1        0.0536
     17 C         141.3814  140.3542  158.6349 C.ar    1  UNL1        0.0045
     18 C         140.6347  140.7800  159.8642 C.ar    1  UNL1        0.0001
     19 C         141.2262  140.5402  161.2217 C.ar    1  UNL1       -0.0001
     20 C         142.5642  139.8745  161.3498 C.ar    1  UNL1        0.0001
     21 C         143.3109  139.4487  160.1205 C.ar    1  UNL1        0.0045
     22 N         143.0695  138.0090  156.8119 N.am    1  UNL1       -0.2761
     23 C         143.4662  139.2627  157.5338 C.2     1  UNL1        0.2490
     24 O         144.6096  140.0905  157.0264 O.2     1  UNL1       -0.2699
     25 C         144.1578  136.1374  155.3758 C.3     1  UNL1        0.0233
     26 C         143.8162  137.5832  155.5827 C.3     1  UNL1        0.0938
     27 C         141.9261  137.1813  157.3194 C.3     1  UNL1        0.0938
     28 C         140.5756  137.2935  156.6762 C.3     1  UNL1        0.0233
@<TRIPOS>BOND
     1    25    26    1
     2    26    22    1
     3    22    27    1
     4    27    28    1
     5    22    23   am
     6    23    24    2
     7    23    16    1
     8    16    17   ar
     9    17    18   ar
    10    18    19   ar
    11    19     1    1
    12     1     2    2
    13     2     3    1
    14     3     4    1
    15     4     5    1
    16     5     6    1
    17     6     7    1
    18     3     8    1
    19     8     9    1
    20     9    10   ar
    21    10    11   ar
    22    11    12   ar
    23    12    13   ar
    24    13    14   ar
    25    19    20   ar
    26    20    21   ar
    27    21    16   ar
    28    14     1    1
    29     7     3    1
    30    14     9   ar
    31     6    15    1
@<TRIPOS>MOLECULE
*****
 28 31 0 0 0
SMALL
GASTEIGER

@<TRIPOS>ATOM
      1 C         141.6576  143.5978  161.3098 C.2     1  UNL1        0.0020
      2 C         143.0480  143.0755  161.5192 C.2     1  UNL1        0.0143
      3 C         143.5408  142.7895  162.9068 C.3     1  UNL1        0.1672
      4 C         144.1688  142.4594  164.2283 C.3     1  UNL1        0.0628
      5 C         145.5635  141.9714  163.9696 C.3     1  UNL1        0.0727
      6 N         145.7973  142.0000  162.4882 N.3     1  UNL1       -0.2942
      7 C         144.5472  142.5057  161.8313 C.3     1  UNL1        0.1135
      8 O         142.6430  143.0259  164.0850 O.3     1  UNL1       -0.4771
      9 C         141.2526  143.5483  163.8756 C.ar    1  UNL1        0.1386
     10 C         140.3549  143.7847  165.0539 C.ar    1  UNL1        0.0369
     11 C         138.9645  144.3070  164.8445 C.ar    1  UNL1        0.0031
     12 C         138.4717  144.5929  163.4569 C.ar    1  UNL1        0.0002
     13 C         139.3694  144.3566  162.2786 C.ar    1  UNL1        0.0030
     14 C         140.7599  143.8342  162.4880 C.ar    1  UNL1        0.0338
     15 H         146.0087  141.0602  162.1530 H       1  UNL1        0.1234
     16 C         140.1794  144.4556  157.1469 C.ar    1  UNL1        0.0536
     17 C         140.0077  143.0871  157.7367 C.ar    1  UNL1        0.0045
     18 C         140.5004  142.8012  159.1243 C.ar    1  UNL1        0.0001
     19 C         141.1649  143.8838  159.9222 C.ar    1  UNL1       -0.0001
     20 C         141.3366  145.2522  159.3324 C.ar    1  UNL1        0.0001
     21 C         140.8439  145.5381  157.9448 C.ar    1  UNL1        0.0045
     22 N         140.5751  144.4799  154.5792 N.am    1  UNL1       -0.2761
     23 C         139.6867  144.7415  155.7593 C.2     1  UNL1        0.2490
     24 O         138.3058  145.2891  155.5517 O.2     1  UNL1       -0.2699
     25 C         139.8235  143.6357  152.2399 C.3     1  UNL1        0.0233
     26 C         140.0824  144.7658  153.1916 C.3     1  UNL1        0.0938
     27 C         141.9560  143.9323  154.7868 C.3     1  UNL1        0.0938
     28 C         143.1536  144.7753  154.4625 C.3     1  UNL1        0.0233
@<TRIPOS>BOND
     1    25    26    1
     2    26    22    1
     3    22    27    1
     4    27    28    1
     5    22    23   am
     6    23    24    2
     7    23    16    1
     8    16    17   ar
     9    17    18   ar
    10    18    19   ar
    11    19     1    1
    12     1     2    2
    13     2     3    1
    14     3     4    1
    15     4     5    1
    16     5     6    1
    17     6     7    1
    18     3     8    1
    19     8     9    1
    20     9    10   ar
    21    10    11   ar
    22    11    12   ar
    23    12    13   ar
    24    13    14   ar
    25    19    20   ar
    26    20    21   ar
    27    21    16   ar
    28    14     1    1
    29     7     3    1
    30    14     9   ar
    31     6    15    1
