@<TRIPOS>MOLECULE
*****
 21 22 0 0 0
SMALL
GASTEIGER

@<TRIPOS>ATOM
      1 C         139.4247  138.2805  164.1648 C.ar    1  UNL1        0.0287
      2 C         138.7642  137.2663  165.0508 C.ar    1  UNL1        0.0297
      3 C         138.0749  137.7048  166.3088 C.ar    1  UNL1        0.1401
      4 F         137.4144  136.6905  167.1947 F       1  UNL1       -0.2042
      5 C         138.0461  139.1576  166.6808 C.ar    1  UNL1        0.0327
      6 C         138.7066  140.1719  165.7948 C.ar    1  UNL1        0.0395
      7 C         139.3959  139.7333  164.5368 C.ar    1  UNL1        0.1426
      8 C         140.1140  137.8420  162.9068 C.3     1  UNL1        0.0800
      9 C         141.5953  137.6064  162.9063 C.3     1  UNL1        0.0221
     10 C         137.9925  138.3136  161.4831 C.3     1  UNL1        0.0861
     11 N         139.3219  137.6389  161.6493 N.3     1  UNL1       -0.2939
     12 H         139.9099  137.9526  160.8771 H       1  UNL1        0.1235
     13 O         140.0564  140.7477  163.6508 O.3     1  UNL1       -0.4537
     14 C         141.2390  141.5234  164.1507 C.ar    1  UNL1        0.1462
     15 C         142.2701  140.8499  165.0070 C.ar    1  UNL1        0.0384
     16 C         143.4527  141.6255  165.5069 C.ar    1  UNL1        0.0154
     17 C         143.6041  143.0747  165.1505 C.ar    1  UNL1        0.0684
     18 CL        144.7866  143.8504  165.6503 Cl      1  UNL1       -0.0814
     19 C         142.5730  143.7482  164.2942 C.ar    1  UNL1        0.0712
     20 CL        142.7245  145.1973  163.9378 Cl      1  UNL1       -0.0813
     21 C         141.3904  142.9725  163.7943 C.ar    1  UNL1        0.0497
@<TRIPOS>BOND
     1    10    11    1
     2    11     8    1
     3     8     9    1
     4     8     1    1
     5     1     2   ar
     6     2     3   ar
     7     3     4    1
     8     3     5   ar
     9     5     6   ar
    10     6     7   ar
    11     7    13    1
    12    13    14    1
    13    14    15   ar
    14    15    16   ar
    15    16    17   ar
    16    17    18    1
    17    17    19   ar
    18    19    20    1
    19    19    21   ar
    20     7     1   ar
    21    21    14   ar
    22    11    12    1
@<TRIPOS>MOLECULE
*****
 21 22 0 0 0
SMALL
GASTEIGER

@<TRIPOS>ATOM
      1 C         140.6716  144.2049  163.9903 C.ar    1  UNL1        0.0287
      2 C         141.6979  145.2138  163.5675 C.ar    1  UNL1        0.0297
      3 C         143.1445  144.8248  163.4898 C.ar    1  UNL1        0.1401
      4 F         144.1708  145.8338  163.0669 F       1  UNL1       -0.2042
      5 C         143.5648  143.4269  163.8350 C.ar    1  UNL1        0.0327
      6 C         142.5386  142.4180  164.2578 C.ar    1  UNL1        0.0395
      7 C         141.0920  142.8070  164.3355 C.ar    1  UNL1        0.1426
      8 C         139.2250  144.5939  164.0680 C.3     1  UNL1        0.0800
      9 C         138.6202  144.9735  165.3871 C.3     1  UNL1        0.0221
     10 C         137.9869  143.3096  162.1792 C.3     1  UNL1        0.0861
     11 N         138.3833  144.6034  162.8265 N.3     1  UNL1       -0.2939
     12 H         137.5193  145.0925  163.0603 H       1  UNL1        0.1235
     13 O         140.0656  141.7981  164.7584 O.3     1  UNL1       -0.4537
     14 C         139.9495  141.4060  166.2015 C.ar    1  UNL1        0.1462
     15 C         139.3171  140.0980  166.5748 C.ar    1  UNL1        0.0384
     16 C         139.2010  139.7059  168.0180 C.ar    1  UNL1        0.0154
     17 C         139.7173  140.6218  169.0879 C.ar    1  UNL1        0.0684
     18 CL        139.6012  140.2297  170.5311 Cl      1  UNL1       -0.0814
     19 C         140.3497  141.9297  168.7146 C.ar    1  UNL1        0.0712
     20 CL        140.8660  142.8455  169.7845 Cl      1  UNL1       -0.0813
     21 C         140.4658  142.3218  167.2714 C.ar    1  UNL1        0.0497
@<TRIPOS>BOND
     1    10    11    1
     2    11     8    1
     3     8     9    1
     4     8     1    1
     5     1     2   ar
     6     2     3   ar
     7     3     4    1
     8     3     5   ar
     9     5     6   ar
    10     6     7   ar
    11     7    13    1
    12    13    14    1
    13    14    15   ar
    14    15    16   ar
    15    16    17   ar
    16    17    18    1
    17    17    19   ar
    18    19    20    1
    19    19    21   ar
    20     7     1   ar
    21    21    14   ar
    22    11    12    1
@<TRIPOS>MOLECULE
*****
 21 22 0 0 0
SMALL
GASTEIGER

@<TRIPOS>ATOM
      1 C         139.7891  138.4093  164.5961 C.ar    1  UNL1        0.0287
      2 C         138.5018  138.1292  165.3132 C.ar    1  UNL1        0.0297
      3 C         138.2662  138.6976  166.6812 C.ar    1  UNL1        0.1401
      4 F         136.9788  138.4175  167.3983 F       1  UNL1       -0.2042
      5 C         139.3180  139.5461  167.3322 C.ar    1  UNL1        0.0327
      6 C         140.6054  139.8261  166.6151 C.ar    1  UNL1        0.0395
      7 C         140.8409  139.2577  165.2471 C.ar    1  UNL1        0.1426
      8 C         140.0247  137.8409  163.2281 C.3     1  UNL1        0.0800
      9 C         138.9491  137.9242  162.1860 C.3     1  UNL1        0.0221
     10 C         142.1259  137.6474  161.7124 C.3     1  UNL1        0.0861
     11 N         141.3358  137.1892  162.9023 N.3     1  UNL1       -0.2939
     12 H         141.9356  137.3102  163.7183 H       1  UNL1        0.1235
     13 O         142.1284  139.5378  164.5300 O.3     1  UNL1       -0.4537
     14 C         142.5295  140.9525  164.2338 C.ar    1  UNL1        0.1462
     15 C         141.9683  141.6555  163.0334 C.ar    1  UNL1        0.0384
     16 C         142.3695  143.0702  162.7372 C.ar    1  UNL1        0.0154
     17 C         143.3317  143.7819  163.6414 C.ar    1  UNL1        0.0684
     18 CL        143.7328  145.1966  163.3452 Cl      1  UNL1       -0.0814
     19 C         143.8928  143.0789  164.8417 C.ar    1  UNL1        0.0712
     20 CL        144.8551  143.7907  165.7459 Cl      1  UNL1       -0.0813
     21 C         143.4917  141.6642  165.1380 C.ar    1  UNL1        0.0497
@<TRIPOS>BOND
     1    10    11    1
     2    11     8    1
     3     8     9    1
     4     8     1    1
     5     1     2   ar
     6     2     3   ar
     7     3     4    1
     8     3     5   ar
     9     5     6   ar
    10     6     7   ar
    11     7    13    1
    12    13    14    1
    13    14    15   ar
    14    15    16   ar
    15    16    17   ar
    16    17    18    1
    17    17    19   ar
    18    19    20    1
    19    19    21   ar
    20     7     1   ar
    21    21    14   ar
    22    11    12    1
@<TRIPOS>MOLECULE
*****
 21 22 0 0 0
SMALL
GASTEIGER

@<TRIPOS>ATOM
      1 C         141.6030  140.6325  167.5614 C.ar    1  UNL1        0.0287
      2 C         142.7648  139.6877  167.6483 C.ar    1  UNL1        0.0297
      3 C         142.9914  138.6759  166.5644 C.ar    1  UNL1        0.1401
      4 F         144.1533  137.7311  166.6514 F       1  UNL1       -0.2042
      5 C         142.0562  138.6088  165.3936 C.ar    1  UNL1        0.0327
      6 C         140.8944  139.5536  165.3066 C.ar    1  UNL1        0.0395
      7 C         140.6678  140.5654  166.3905 C.ar    1  UNL1        0.1426
      8 C         141.3763  141.6443  168.6453 C.3     1  UNL1        0.0800
      9 C         142.5146  142.4932  169.1287 C.3     1  UNL1        0.0221
     10 C         139.3363  140.6394  169.9016 C.3     1  UNL1        0.0861
     11 N         140.0115  141.8073  169.2457 N.3     1  UNL1       -0.2939
     12 H         140.0861  142.5392  169.9522 H       1  UNL1        0.1235
     13 O         139.5059  141.5102  166.3035 O.3     1  UNL1       -0.4537
     14 C         139.5112  142.6139  165.2878 C.ar    1  UNL1        0.1462
     15 C         138.2817  142.8902  164.4740 C.ar    1  UNL1        0.0384
     16 C         138.2870  143.9939  163.4583 C.ar    1  UNL1        0.0154
     17 C         139.5216  144.8214  163.2563 C.ar    1  UNL1        0.0684
     18 CL        139.5269  145.9252  162.2406 Cl      1  UNL1       -0.0814
     19 C         140.7510  144.5453  164.0701 C.ar    1  UNL1        0.0712
     20 CL        141.9857  145.3729  163.8682 Cl      1  UNL1       -0.0813
     21 C         140.7458  143.4415  165.0859 C.ar    1  UNL1        0.0497
@<TRIPOS>BOND
     1    10    11    1
     2    11     8    1
     3     8     9    1
     4     8     1    1
     5     1     2   ar
     6     2     3   ar
     7     3     4    1
     8     3     5   ar
     9     5     6   ar
    10     6     7   ar
    11     7    13    1
    12    13    14    1
    13    14    15   ar
    14    15    16   ar
    15    16    17   ar
    16    17    18    1
    17    17    19   ar
    18    19    20    1
    19    19    21   ar
    20     7     1   ar
    21    21    14   ar
    22    11    12    1
@<TRIPOS>MOLECULE
*****
 21 22 0 0 0
SMALL
GASTEIGER

@<TRIPOS>ATOM
      1 C         139.7542  140.7764  167.5904 C.ar    1  UNL1        0.0287
      2 C         138.8992  139.5885  167.9184 C.ar    1  UNL1        0.0297
      3 C         138.0781  138.9363  166.8458 C.ar    1  UNL1        0.1401
      4 F         137.2230  137.7483  167.1738 F       1  UNL1       -0.2042
      5 C         138.1120  139.4722  165.4452 C.ar    1  UNL1        0.0327
      6 C         138.9670  140.6601  165.1172 C.ar    1  UNL1        0.0395
      7 C         139.7881  141.3123  166.1898 C.ar    1  UNL1        0.1426
      8 C         140.5754  141.4286  168.6630 C.3     1  UNL1        0.0800
      9 C         141.1837  140.5960  169.7523 C.3     1  UNL1        0.0221
     10 C         140.4760  143.7295  169.8653 C.3     1  UNL1        0.0861
     11 N         140.7882  142.9133  168.6462 N.3     1  UNL1       -0.2939
     12 H         141.7738  143.0671  168.4333 H       1  UNL1        0.1235
     13 O         140.6432  142.5003  165.8617 O.3     1  UNL1       -0.4537
     14 C         142.0052  142.3023  165.2655 C.ar    1  UNL1        0.1462
     15 C         142.7279  143.4610  164.6447 C.ar    1  UNL1        0.0384
     16 C         144.0899  143.2630  164.0484 C.ar    1  UNL1        0.0154
     17 C         144.7294  141.9064  164.0728 C.ar    1  UNL1        0.0684
     18 CL        146.0914  141.7084  163.4766 Cl      1  UNL1       -0.0814
     19 C         144.0068  140.7477  164.6935 C.ar    1  UNL1        0.0712
     20 CL        144.6463  139.3911  164.7180 Cl      1  UNL1       -0.0813
     21 C         142.6447  140.9457  165.2899 C.ar    1  UNL1        0.0497
@<TRIPOS>BOND
     1    10    11    1
     2    11     8    1
     3     8     9    1
     4     8     1    1
     5     1     2   ar
     6     2     3   ar
     7     3     4    1
     8     3     5   ar
     9     5     6   ar
    10     6     7   ar
    11     7    13    1
    12    13    14    1
    13    14    15   ar
    14    15    16   ar
    15    16    17   ar
    16    17    18    1
    17    17    19   ar
    18    19    20    1
    19    19    21   ar
    20     7     1   ar
    21    21    14   ar
    22    11    12    1
@<TRIPOS>MOLECULE
*****
 21 22 0 0 0
SMALL
GASTEIGER

@<TRIPOS>ATOM
      1 C         141.9548  139.7107  167.5541 C.ar    1  UNL1        0.0287
      2 C         142.5406  139.9218  168.9187 C.ar    1  UNL1        0.0297
      3 C         141.6446  140.2427  170.0781 C.ar    1  UNL1        0.1401
      4 F         142.2304  140.4539  171.4428 F       1  UNL1       -0.2042
      5 C         140.1627  140.3524  169.8729 C.ar    1  UNL1        0.0327
      6 C         139.5770  140.1412  168.5083 C.ar    1  UNL1        0.0395
      7 C         140.4730  139.8204  167.3489 C.ar    1  UNL1        0.1426
      8 C         142.8508  139.3898  166.3947 C.3     1  UNL1        0.0800
      9 C         143.7129  138.1628  166.4302 C.3     1  UNL1        0.0221
     10 C         143.6690  141.5737  165.2496 C.3     1  UNL1        0.0861
     11 N         142.8848  140.2960  165.1999 N.3     1  UNL1       -0.2939
     12 H         143.2620  139.7489  164.4260 H       1  UNL1        0.1235
     13 O         139.8871  139.6092  165.9842 O.3     1  UNL1       -0.4537
     14 C         139.2887  140.7646  165.2379 C.ar    1  UNL1        0.1462
     15 C         138.1550  140.5344  164.2831 C.ar    1  UNL1        0.0384
     16 C         137.5565  141.6898  163.5368 C.ar    1  UNL1        0.0154
     17 C         138.0918  143.0754  163.7453 C.ar    1  UNL1        0.0684
     18 CL        137.4934  144.2308  162.9991 Cl      1  UNL1       -0.0814
     19 C         139.2255  143.3057  164.7001 C.ar    1  UNL1        0.0712
     20 CL        139.7608  144.6913  164.9087 Cl      1  UNL1       -0.0813
     21 C         139.8240  142.1502  165.4465 C.ar    1  UNL1        0.0497
@<TRIPOS>BOND
     1    10    11    1
     2    11     8    1
     3     8     9    1
     4     8     1    1
     5     1     2   ar
     6     2     3   ar
     7     3     4    1
     8     3     5   ar
     9     5     6   ar
    10     6     7   ar
    11     7    13    1
    12    13    14    1
    13    14    15   ar
    14    15    16   ar
    15    16    17   ar
    16    17    18    1
    17    17    19   ar
    18    19    20    1
    19    19    21   ar
    20     7     1   ar
    21    21    14   ar
    22    11    12    1
@<TRIPOS>MOLECULE
*****
 21 22 0 0 0
SMALL
GASTEIGER

@<TRIPOS>ATOM
      1 C         139.7828  140.5250  167.8641 C.ar    1  UNL1        0.0287
      2 C         140.0121  140.0870  169.2802 C.ar    1  UNL1        0.0297
      3 C         140.4736  141.0787  170.3066 C.ar    1  UNL1        0.1401
      4 F         140.7029  140.6406  171.7228 F       1  UNL1       -0.2042
      5 C         140.7058  142.5084  169.9169 C.ar    1  UNL1        0.0327
      6 C         140.4765  142.9464  168.5007 C.ar    1  UNL1        0.0395
      7 C         140.0150  141.9547  167.4743 C.ar    1  UNL1        0.1426
      8 C         139.3213  139.5333  166.8377 C.3     1  UNL1        0.0800
      9 C         138.0016  138.8401  167.0047 C.3     1  UNL1        0.0221
     10 C         141.6518  139.0069  165.8173 C.3     1  UNL1        0.0861
     11 N         140.1794  139.2347  165.6442 N.3     1  UNL1       -0.2939
     12 H         139.7999  138.3924  165.2120 H       1  UNL1        0.1235
     13 O         139.7857  142.3928  166.0581 O.3     1  UNL1       -0.4537
     14 C         140.8683  143.1145  165.3117 C.ar    1  UNL1        0.1462
     15 C         140.5366  144.3321  164.5007 C.ar    1  UNL1        0.0384
     16 C         141.6192  145.0538  163.7543 C.ar    1  UNL1        0.0154
     17 C         143.0334  144.5580  163.8188 C.ar    1  UNL1        0.0684
     18 CL        144.1160  145.2797  163.0724 Cl      1  UNL1       -0.0814
     19 C         143.3651  143.3405  164.6297 C.ar    1  UNL1        0.0712
     20 CL        144.7793  142.8447  164.6942 Cl      1  UNL1       -0.0813
     21 C         142.2825  142.6187  165.3762 C.ar    1  UNL1        0.0497
@<TRIPOS>BOND
     1    10    11    1
     2    11     8    1
     3     8     9    1
     4     8     1    1
     5     1     2   ar
     6     2     3   ar
     7     3     4    1
     8     3     5   ar
     9     5     6   ar
    10     6     7   ar
    11     7    13    1
    12    13    14    1
    13    14    15   ar
    14    15    16   ar
    15    16    17   ar
    16    17    18    1
    17    17    19   ar
    18    19    20    1
    19    19    21   ar
    20     7     1   ar
    21    21    14   ar
    22    11    12    1
@<TRIPOS>MOLECULE
*****
 21 22 0 0 0
SMALL
GASTEIGER

@<TRIPOS>ATOM
      1 C         140.3297  140.4260  167.0175 C.ar    1  UNL1        0.0287
      2 C         139.4562  139.8664  168.1009 C.ar    1  UNL1        0.0297
      3 C         139.2764  140.6214  169.3845 C.ar    1  UNL1        0.1401
      4 F         138.4028  140.0617  170.4678 F       1  UNL1       -0.2042
      5 C         139.9702  141.9361  169.5847 C.ar    1  UNL1        0.0327
      6 C         140.8438  142.4958  168.5014 C.ar    1  UNL1        0.0395
      7 C         141.0235  141.7407  167.2178 C.ar    1  UNL1        0.1426
      8 C         140.5095  139.6710  165.7340 C.3     1  UNL1        0.0800
      9 C         139.3132  139.1325  165.0067 C.3     1  UNL1        0.0221
     10 C         142.9167  138.7277  165.9890 C.3     1  UNL1        0.0861
     11 N         141.8855  139.4544  165.1776 N.3     1  UNL1       -0.2939
     12 H         141.7729  138.9322  164.3087 H       1  UNL1        0.1235
     13 O         141.8971  142.3005  166.1344 O.3     1  UNL1       -0.4537
     14 C         141.3202  143.2368  165.1145 C.ar    1  UNL1        0.1462
     15 C         142.2273  144.1150  164.3046 C.ar    1  UNL1        0.0384
     16 C         141.6503  145.0514  163.2846 C.ar    1  UNL1        0.0154
     17 C         140.1663  145.1097  163.0746 C.ar    1  UNL1        0.0684
     18 CL        139.5893  146.0460  162.0547 Cl      1  UNL1       -0.0814
     19 C         139.2591  144.2316  163.8845 C.ar    1  UNL1        0.0712
     20 CL        137.7751  144.2898  163.6745 Cl      1  UNL1       -0.0813
     21 C         139.8361  143.2951  164.9045 C.ar    1  UNL1        0.0497
@<TRIPOS>BOND
     1    10    11    1
     2    11     8    1
     3     8     9    1
     4     8     1    1
     5     1     2   ar
     6     2     3   ar
     7     3     4    1
     8     3     5   ar
     9     5     6   ar
    10     6     7   ar
    11     7    13    1
    12    13    14    1
    13    14    15   ar
    14    15    16   ar
    15    16    17   ar
    16    17    18    1
    17    17    19   ar
    18    19    20    1
    19    19    21   ar
    20     7     1   ar
    21    21    14   ar
    22    11    12    1
@<TRIPOS>MOLECULE
*****
 21 22 0 0 0
SMALL
GASTEIGER

@<TRIPOS>ATOM
      1 C         139.2935  138.2797  164.6527 C.ar    1  UNL1        0.0287
      2 C         138.2935  137.5503  165.5000 C.ar    1  UNL1        0.0297
      3 C         137.8361  138.1443  166.7993 C.ar    1  UNL1        0.1401
      4 F         136.8360  137.4148  167.6466 F       1  UNL1       -0.2042
      5 C         138.3787  139.4676  167.2512 C.ar    1  UNL1        0.0327
      6 C         139.3787  140.1970  166.4039 C.ar    1  UNL1        0.0395
      7 C         139.8361  139.6030  165.1047 C.ar    1  UNL1        0.1426
      8 C         139.7509  137.6857  163.3535 C.3     1  UNL1        0.0800
      9 C         141.1674  137.2164  163.2009 C.3     1  UNL1        0.0221
     10 C         137.9082  138.7159  161.8393 C.3     1  UNL1        0.0861
     11 N         138.7919  137.5610  162.2070 N.3     1  UNL1       -0.2939
     12 H         139.3479  137.3409  161.3806 H       1  UNL1        0.1235
     13 O         140.8362  140.3325  164.2574 O.3     1  UNL1       -0.4537
     14 C         140.5307  141.7135  163.7580 C.ar    1  UNL1        0.1462
     15 C         139.2900  141.9625  162.9526 C.ar    1  UNL1        0.0384
     16 C         138.9845  143.3435  162.4533 C.ar    1  UNL1        0.0154
     17 C         139.9198  144.4756  162.7593 C.ar    1  UNL1        0.0684
     18 CL        139.6143  145.8567  162.2600 Cl      1  UNL1       -0.0814
     19 C         141.1605  144.2267  163.5646 C.ar    1  UNL1        0.0712
     20 CL        142.0957  145.3588  163.8707 Cl      1  UNL1       -0.0813
     21 C         141.4660  142.8456  164.0640 C.ar    1  UNL1        0.0497
@<TRIPOS>BOND
     1    10    11    1
     2    11     8    1
     3     8     9    1
     4     8     1    1
     5     1     2   ar
     6     2     3   ar
     7     3     4    1
     8     3     5   ar
     9     5     6   ar
    10     6     7   ar
    11     7    13    1
    12    13    14    1
    13    14    15   ar
    14    15    16   ar
    15    16    17   ar
    16    17    18    1
    17    17    19   ar
    18    19    20    1
    19    19    21   ar
    20     7     1   ar
    21    21    14   ar
    22    11    12    1
