@<TRIPOS>MOLECULE
*****
 33 36 0 0 0
SMALL
GASTEIGER

@<TRIPOS>ATOM
      1 N         137.4524  140.7569  161.7157 N.pl3   1  UNL1       -0.2825
      2 H         136.4713  140.7969  161.6443 H       1  UNL1        0.1551
      3 C         141.2347  144.4165  160.8644 C.ar    1  UNL1        0.1554
      4 N         141.7396  144.9701  159.5649 N.ar    1  UNL1       -0.1646
      5 N         140.9818  144.3071  158.4531 N.ar    1  UNL1       -0.2487
      6 C         141.1649  144.5625  156.9864 C.3     1  UNL1        0.1537
      7 C         140.0085  143.3439  159.0654 C.ar    1  UNL1        0.0796
      8 C         139.0001  142.4139  158.4586 C.ar    1  UNL1        0.0201
      9 C         138.1481  141.5516  159.3420 C.ar    1  UNL1        0.0162
     10 C         138.3045  141.6193  160.8323 C.ar    1  UNL1        0.0506
     11 C         139.3129  142.5492  161.4391 C.ar    1  UNL1        0.0179
     12 C         140.1649  143.4115  160.5557 C.ar    1  UNL1        0.0423
     13 C         143.6668  145.2776  163.8800 C.3     1  UNL1        0.1110
     14 N         143.1862  144.8935  162.5120 N.am    1  UNL1       -0.2979
     15 C         141.7154  144.8006  162.2324 C.2     1  UNL1        0.2654
     16 O         140.7253  145.0918  163.3209 O.2     1  UNL1       -0.2684
     17 H         143.8361  144.7025  161.7976 H       1  UNL1        0.1498
     18 C         138.0951  139.8336  162.7078 C.ar    1  UNL1        0.2221
     19 N         138.4046  138.4172  162.3232 N.ar    1  UNL1       -0.2119
     20 C         139.0474  137.4939  163.3154 C.ar    1  UNL1        0.1050
     21 C         139.3806  137.9870  164.6922 C.ar    1  UNL1        0.0596
     22 C         139.0711  139.4035  165.0769 C.ar    1  UNL1        0.1682
     23 N         138.4284  140.3267  164.0848 N.ar    1  UNL1       -0.1944
     24 N         139.4044  139.8966  166.4537 N.ar    1  UNL1       -0.2112
     25 C         140.4770  140.8863  166.8002 C.ar    1  UNL1        0.1003
     26 C         140.4591  141.0880  168.2864 C.ar    1  UNL1        0.0283
     27 C         139.3754  140.2230  168.8585 C.ar    1  UNL1        0.0782
     28 C         139.0080  140.1135  170.3088 C.3     1  UNL1        0.0537
     29 N         138.7235  139.4867  167.7259 N.ar    1  UNL1       -0.1684
     30 C         141.3657  141.9954  169.0641 C.3     1  UNL1        0.1020
     31 N         142.6438  141.4634  169.6415 N.3     1  UNL1       -0.2664
     32 C         142.7282  140.0330  170.0850 C.3     1  UNL1        0.0899
     33 C         143.8375  142.3619  169.7754 C.3     1  UNL1        0.0899
@<TRIPOS>BOND
     1    13    14    1
     2    14    15   am
     3    15    16    2
     4    15     3    1
     5     3     4   ar
     6     4     5   ar
     7     5     6    1
     8     5     7   ar
     9     7     8   ar
    10     8     9   ar
    11     9    10   ar
    12    10     1    1
    13     1    18    1
    14    18    19   ar
    15    19    20   ar
    16    20    21   ar
    17    21    22   ar
    18    22    24    1
    19    24    25   ar
    20    25    26   ar
    21    26    30    1
    22    30    31    1
    23    31    32    1
    24    31    33    1
    25    26    27   ar
    26    27    28    1
    27    27    29   ar
    28    22    23   ar
    29    10    11   ar
    30    11    12   ar
    31    12     3   ar
    32    12     7   ar
    33    23    18   ar
    34    29    24   ar
    35    14    17    1
    36     1     2    1
@<TRIPOS>MOLECULE
*****
 33 36 0 0 0
SMALL
GASTEIGER

@<TRIPOS>ATOM
      1 N         140.5061  145.7203  161.4035 N.pl3   1  UNL1       -0.2825
      2 H         140.4670  146.7040  161.4027 H       1  UNL1        0.1551
      3 C         144.1493  142.1326  159.8940 C.ar    1  UNL1        0.1554
      4 N         144.6412  141.8071  158.5148 N.ar    1  UNL1       -0.1646
      5 N         143.9171  142.6919  157.5437 N.ar    1  UNL1       -0.2487
      6 C         144.1002  142.7025  156.0550 C.3     1  UNL1        0.1537
      7 C         142.9778  143.5641  158.3227 C.ar    1  UNL1        0.0796
      8 C         142.0104  144.6285  157.8971 C.ar    1  UNL1        0.0201
      9 C         141.1865  145.3472  158.9240 C.ar    1  UNL1        0.0162
     10 C         141.3300  145.0015  160.3766 C.ar    1  UNL1        0.0506
     11 C         142.2974  143.9372  160.8022 C.ar    1  UNL1        0.0179
     12 C         143.1213  143.2185  159.7753 C.ar    1  UNL1        0.0423
     13 C         145.7937  141.6462  163.4731 C.3     1  UNL1        0.1110
     14 N         145.3377  142.2930  162.1989 N.am    1  UNL1       -0.2979
     15 C         144.6054  141.4857  161.1682 C.2     1  UNL1        0.2654
     16 O         144.3293  140.0317  161.4118 O.2     1  UNL1       -0.2684
     17 H         145.5189  143.2474  162.0390 H       1  UNL1        0.1498
     18 C         139.7416  144.9402  162.4316 C.ar    1  UNL1        0.2221
     19 N         138.2417  144.9556  162.4223 N.ar    1  UNL1       -0.2119
     20 C         137.4773  144.1754  163.4505 C.ar    1  UNL1        0.1050
     21 C         138.2128  143.3801  164.4880 C.ar    1  UNL1        0.0596
     22 C         139.7127  143.3648  164.4974 C.ar    1  UNL1        0.1682
     23 N         140.4771  144.1448  163.4692 N.ar    1  UNL1       -0.1944
     24 N         140.4481  142.5694  165.5348 N.ar    1  UNL1       -0.2112
     25 C         140.4591  142.8410  167.0100 C.ar    1  UNL1        0.1003
     26 C         141.3195  141.8022  167.6662 C.ar    1  UNL1        0.0283
     27 C         141.8403  140.8886  166.5966 C.ar    1  UNL1        0.0782
     28 C         142.7415  139.7081  166.8072 C.3     1  UNL1        0.0537
     29 N         141.3018  141.3628  165.2793 N.ar    1  UNL1       -0.1684
     30 C         141.6084  141.6958  169.1343 C.3     1  UNL1        0.1020
     31 N         140.4798  141.5587  170.1128 N.3     1  UNL1       -0.2664
     32 C         140.0299  140.1972  170.5530 C.3     1  UNL1        0.0899
     33 C         139.8010  142.7834  170.6511 C.3     1  UNL1        0.0899
@<TRIPOS>BOND
     1    13    14    1
     2    14    15   am
     3    15    16    2
     4    15     3    1
     5     3     4   ar
     6     4     5   ar
     7     5     6    1
     8     5     7   ar
     9     7     8   ar
    10     8     9   ar
    11     9    10   ar
    12    10     1    1
    13     1    18    1
    14    18    19   ar
    15    19    20   ar
    16    20    21   ar
    17    21    22   ar
    18    22    24    1
    19    24    25   ar
    20    25    26   ar
    21    26    30    1
    22    30    31    1
    23    31    32    1
    24    31    33    1
    25    26    27   ar
    26    27    28    1
    27    27    29   ar
    28    22    23   ar
    29    10    11   ar
    30    11    12   ar
    31    12     3   ar
    32    12     7   ar
    33    23    18   ar
    34    29    24   ar
    35    14    17    1
    36     1     2    1
@<TRIPOS>MOLECULE
*****
 33 36 0 0 0
SMALL
GASTEIGER

@<TRIPOS>ATOM
      1 N         144.2575  141.4741  160.2072 N.pl3   1  UNL1       -0.2825
      2 H         144.7800  140.8674  159.6344 H       1  UNL1        0.1551
      3 C         140.2914  145.0349  160.3282 C.ar    1  UNL1        0.1554
      4 N         139.7917  145.9313  159.2342 N.ar    1  UNL1       -0.1646
      5 N         140.6184  145.6733  158.0096 N.ar    1  UNL1       -0.2487
      6 C         140.4620  146.3519  156.6811 C.3     1  UNL1        0.1537
      7 C         141.6291  144.6174  158.3466 C.ar    1  UNL1        0.0796
      8 C         142.7074  143.9642  157.5338 C.ar    1  UNL1        0.0201
      9 C         143.5835  142.9165  158.1540 C.ar    1  UNL1        0.0162
     10 C         143.3813  142.5219  159.5870 C.ar    1  UNL1        0.0506
     11 C         142.3031  143.1751  160.3998 C.ar    1  UNL1        0.0179
     12 C         141.4270  144.2228  159.7796 C.ar    1  UNL1        0.0423
     13 C         137.8589  144.2891  163.3740 C.3     1  UNL1        0.1110
     14 N         138.3998  144.3609  161.9768 N.am    1  UNL1       -0.2979
     15 C         139.7505  144.9631  161.7254 C.2     1  UNL1        0.2654
     16 O         140.5601  145.4935  162.8713 O.2     1  UNL1       -0.2684
     17 H         137.8684  144.0127  161.2247 H       1  UNL1        0.1498
     18 C         144.3375  141.3509  161.6999 C.ar    1  UNL1        0.2221
     19 N         145.5889  141.7577  162.4201 N.ar    1  UNL1       -0.2119
     20 C         145.6689  141.6344  163.9129 C.ar    1  UNL1        0.1050
     21 C         144.4975  141.1043  164.6855 C.ar    1  UNL1        0.0596
     22 C         143.2461  140.6976  163.9653 C.ar    1  UNL1        0.1682
     23 N         143.1661  140.8208  162.4726 N.ar    1  UNL1       -0.1944
     24 N         142.0748  140.1675  164.7379 N.ar    1  UNL1       -0.2112
     25 C         141.6638  140.5908  166.1171 C.ar    1  UNL1        0.1003
     26 C         140.4438  139.8061  166.4986 C.ar    1  UNL1        0.0283
     27 C         140.1007  138.8977  165.3552 C.ar    1  UNL1        0.0782
     28 C         138.9514  137.9349  165.3082 C.3     1  UNL1        0.0537
     29 N         141.1088  139.1211  164.2671 N.ar    1  UNL1       -0.1684
     30 C         139.6978  139.9111  167.7956 C.3     1  UNL1        0.1020
     31 N         140.3754  140.4807  169.0066 N.3     1  UNL1       -0.2664
     32 C         141.3295  139.6367  169.7986 C.3     1  UNL1        0.0899
     33 C         140.0989  141.8943  169.4255 C.3     1  UNL1        0.0899
@<TRIPOS>BOND
     1    13    14    1
     2    14    15   am
     3    15    16    2
     4    15     3    1
     5     3     4   ar
     6     4     5   ar
     7     5     6    1
     8     5     7   ar
     9     7     8   ar
    10     8     9   ar
    11     9    10   ar
    12    10     1    1
    13     1    18    1
    14    18    19   ar
    15    19    20   ar
    16    20    21   ar
    17    21    22   ar
    18    22    24    1
    19    24    25   ar
    20    25    26   ar
    21    26    30    1
    22    30    31    1
    23    31    32    1
    24    31    33    1
    25    26    27   ar
    26    27    28    1
    27    27    29   ar
    28    22    23   ar
    29    10    11   ar
    30    11    12   ar
    31    12     3   ar
    32    12     7   ar
    33    23    18   ar
    34    29    24   ar
    35    14    17    1
    36     1     2    1
@<TRIPOS>MOLECULE
*****
 33 36 0 0 0
SMALL
GASTEIGER

@<TRIPOS>ATOM
      1 N         144.5256  141.7777  160.7696 N.pl3   1  UNL1       -0.2825
      2 H         145.4930  141.9603  160.7721 H       1  UNL1        0.1551
      3 C         140.2971  145.0224  160.6460 C.ar    1  UNL1        0.1554
      4 N         139.7541  145.8250  159.5010 N.ar    1  UNL1       -0.1646
      5 N         140.6246  145.5744  158.3054 N.ar    1  UNL1       -0.2487
      6 C         140.4456  146.1757  156.9429 C.3     1  UNL1        0.1537
      7 C         141.7055  144.6170  158.7115 C.ar    1  UNL1        0.0796
      8 C         142.8480  144.0118  157.9509 C.ar    1  UNL1        0.0201
      9 C         143.7880  143.0654  158.6369 C.ar    1  UNL1        0.0162
     10 C         143.5855  142.7242  160.0835 C.ar    1  UNL1        0.0506
     11 C         142.4431  143.3294  160.8441 C.ar    1  UNL1        0.0179
     12 C         141.5031  144.2758  160.1581 C.ar    1  UNL1        0.0423
     13 C         140.0656  144.6228  164.5877 C.3     1  UNL1        0.1110
     14 N         140.6296  144.6705  163.1986 N.am    1  UNL1       -0.2979
     15 C         139.7330  144.9747  162.0351 C.2     1  UNL1        0.2654
     16 O         138.2725  145.2313  162.2608 O.2     1  UNL1       -0.2684
     17 H         141.5882  144.5021  163.0506 H       1  UNL1        0.1498
     18 C         143.9917  140.5532  161.4516 C.ar    1  UNL1        0.2221
     19 N         144.0189  139.2297  160.7462 N.ar    1  UNL1       -0.2119
     20 C         143.4850  138.0051  161.4284 C.ar    1  UNL1        0.1050
     21 C         142.9239  138.1040  162.8159 C.ar    1  UNL1        0.0596
     22 C         142.8967  139.4274  163.5214 C.ar    1  UNL1        0.1682
     23 N         143.4306  140.6520  162.8393 N.ar    1  UNL1       -0.1944
     24 N         142.3356  139.5263  164.9089 N.ar    1  UNL1       -0.2112
     25 C         143.1163  139.4203  166.1853 C.ar    1  UNL1        0.1003
     26 C         142.1585  139.5771  167.3290 C.ar    1  UNL1        0.0283
     27 C         140.7857  139.7800  166.7594 C.ar    1  UNL1        0.0782
     28 C         139.5249  139.9793  167.5471 C.3     1  UNL1        0.0537
     29 N         140.8952  139.7486  165.2637 N.ar    1  UNL1       -0.1684
     30 C         142.5114  139.5378  168.7863 C.3     1  UNL1        0.1020
     31 N         142.5440  140.8073  169.5846 N.3     1  UNL1       -0.2664
     32 C         143.1783  142.0389  169.0094 C.3     1  UNL1        0.0899
     33 C         141.9422  140.8453  170.9582 C.3     1  UNL1        0.0899
@<TRIPOS>BOND
     1    13    14    1
     2    14    15   am
     3    15    16    2
     4    15     3    1
     5     3     4   ar
     6     4     5   ar
     7     5     6    1
     8     5     7   ar
     9     7     8   ar
    10     8     9   ar
    11     9    10   ar
    12    10     1    1
    13     1    18    1
    14    18    19   ar
    15    19    20   ar
    16    20    21   ar
    17    21    22   ar
    18    22    24    1
    19    24    25   ar
    20    25    26   ar
    21    26    30    1
    22    30    31    1
    23    31    32    1
    24    31    33    1
    25    26    27   ar
    26    27    28    1
    27    27    29   ar
    28    22    23   ar
    29    10    11   ar
    30    11    12   ar
    31    12     3   ar
    32    12     7   ar
    33    23    18   ar
    34    29    24   ar
    35    14    17    1
    36     1     2    1
@<TRIPOS>MOLECULE
*****
 33 36 0 0 0
SMALL
GASTEIGER

@<TRIPOS>ATOM
      1 N         142.6600  137.6360  162.2852 N.pl3   1  UNL1       -0.2825
      2 H         143.2826  136.9278  162.5681 H       1  UNL1        0.1551
      3 C         143.1221  138.5150  157.0471 C.ar    1  UNL1        0.1554
      4 N         143.5640  139.7573  156.3321 N.ar    1  UNL1       -0.1646
      5 N         143.8827  140.7978  157.3646 N.ar    1  UNL1       -0.2487
      6 C         144.3623  142.1926  157.0918 C.3     1  UNL1        0.1537
      7 C         143.6377  140.1985  158.7176 C.ar    1  UNL1        0.0796
      8 C         143.7820  140.7552  160.1030 C.ar    1  UNL1        0.0201
      9 C         143.4561  139.9010  161.2922 C.ar    1  UNL1        0.0162
     10 C         142.9859  138.4902  161.0960 C.ar    1  UNL1        0.0506
     11 C         142.8417  137.9335  159.7106 C.ar    1  UNL1        0.0179
     12 C         143.1676  138.7876  158.5215 C.ar    1  UNL1        0.0423
     13 C         143.2671  135.1768  154.9057 C.3     1  UNL1        0.1110
     14 N         143.6818  136.4655  155.5516 N.am    1  UNL1       -0.2979
     15 C         142.7073  137.2263  156.4012 C.2     1  UNL1        0.2654
     16 O         141.3183  136.6982  156.6049 O.2     1  UNL1       -0.2684
     17 H         144.5935  136.8121  155.4179 H       1  UNL1        0.1498
     18 C         141.3855  137.8610  163.0435 C.ar    1  UNL1        0.2221
     19 N         140.0827  137.3737  162.4820 N.ar    1  UNL1       -0.2119
     20 C         138.8082  137.5986  163.2404 C.ar    1  UNL1        0.1050
     21 C         138.8365  138.3109  164.5602 C.ar    1  UNL1        0.0596
     22 C         140.1393  138.7982  165.1217 C.ar    1  UNL1        0.1682
     23 N         141.4138  138.5732  164.3634 N.ar    1  UNL1       -0.1944
     24 N         140.1676  139.5104  166.4415 N.ar    1  UNL1       -0.2112
     25 C         141.2080  140.4931  166.8909 C.ar    1  UNL1        0.1003
     26 C         140.8439  140.9551  168.2707 C.ar    1  UNL1        0.0283
     27 C         139.5785  140.2578  168.6741 C.ar    1  UNL1        0.0782
     28 C         138.8576  140.4242  169.9790 C.3     1  UNL1        0.0537
     29 N         139.1606  139.3650  167.5436 N.ar    1  UNL1       -0.1684
     30 C         141.6106  141.9411  169.1014 C.3     1  UNL1        0.1020
     31 N         142.8408  141.5036  169.8397 N.3     1  UNL1       -0.2664
     32 C         144.0271  142.4172  169.9282 C.3     1  UNL1        0.0899
     33 C         142.8846  140.1523  170.4897 C.3     1  UNL1        0.0899
@<TRIPOS>BOND
     1    13    14    1
     2    14    15   am
     3    15    16    2
     4    15     3    1
     5     3     4   ar
     6     4     5   ar
     7     5     6    1
     8     5     7   ar
     9     7     8   ar
    10     8     9   ar
    11     9    10   ar
    12    10     1    1
    13     1    18    1
    14    18    19   ar
    15    19    20   ar
    16    20    21   ar
    17    21    22   ar
    18    22    24    1
    19    24    25   ar
    20    25    26   ar
    21    26    30    1
    22    30    31    1
    23    31    32    1
    24    31    33    1
    25    26    27   ar
    26    27    28    1
    27    27    29   ar
    28    22    23   ar
    29    10    11   ar
    30    11    12   ar
    31    12     3   ar
    32    12     7   ar
    33    23    18   ar
    34    29    24   ar
    35    14    17    1
    36     1     2    1
@<TRIPOS>MOLECULE
*****
 33 36 0 0 0
SMALL
GASTEIGER

@<TRIPOS>ATOM
      1 N         140.8322  145.4932  160.8901 N.pl3   1  UNL1       -0.2825
      2 H         141.4490  146.2331  161.0936 H       1  UNL1        0.1551
      3 C         139.6372  146.3014  155.7576 C.ar    1  UNL1        0.1554
      4 N         139.6221  145.3191  154.6241 N.ar    1  UNL1       -0.1646
      5 N         140.0177  143.9782  155.1676 N.ar    1  UNL1       -0.2487
      6 C         140.1335  142.7068  154.3801 C.3     1  UNL1        0.1537
      7 C         140.2773  144.1318  156.6370 C.ar    1  UNL1        0.0796
      8 C         140.6975  143.1497  157.6900 C.ar    1  UNL1        0.0201
      9 C         140.8825  143.6035  159.1077 C.ar    1  UNL1        0.0162
     10 C         140.6473  145.0394  159.4723 C.ar    1  UNL1        0.0506
     11 C         140.2271  146.0215  158.4193 C.ar    1  UNL1        0.0179
     12 C         140.0421  145.5677  157.0016 C.ar    1  UNL1        0.0423
     13 C         138.2986  149.9123  156.7169 C.3     1  UNL1        0.1110
     14 N         138.6303  148.4524  156.8110 N.am    1  UNL1       -0.2979
     15 C         139.3055  147.7613  155.6635 C.2     1  UNL1        0.2654
     16 O         139.6491  148.5300  154.4223 O.2     1  UNL1       -0.2684
     17 H         138.4048  147.9479  157.6257 H       1  UNL1        0.1498
     18 C         140.0776  144.8196  161.9976 C.ar    1  UNL1        0.2221
     19 N         138.5980  145.0267  162.1312 N.ar    1  UNL1       -0.2119
     20 C         137.8433  144.3531  163.2388 C.ar    1  UNL1        0.1050
     21 C         138.5683  143.4725  164.2129 C.ar    1  UNL1        0.0596
     22 C         140.0480  143.2654  164.0794 C.ar    1  UNL1        0.1682
     23 N         140.8026  143.9389  162.9718 N.ar    1  UNL1       -0.1944
     24 N         140.7729  142.3847  165.0534 N.ar    1  UNL1       -0.2112
     25 C         140.9384  142.6432  166.5217 C.ar    1  UNL1        0.1003
     26 C         141.7275  141.5092  167.1060 C.ar    1  UNL1        0.0283
     27 C         142.0497  140.5499  165.9987 C.ar    1  UNL1        0.0782
     28 C         142.8257  139.2735  166.1359 C.3     1  UNL1        0.0537
     29 N         141.4598  141.0910  164.7302 N.ar    1  UNL1       -0.1684
     30 C         142.1246  141.3606  168.5448 C.3     1  UNL1        0.1020
     31 N         141.5320  140.2621  169.3768 N.3     1  UNL1       -0.2664
     32 C         142.4159  139.1921  169.9458 C.3     1  UNL1        0.0899
     33 C         140.0554  140.2336  169.6397 C.3     1  UNL1        0.0899
@<TRIPOS>BOND
     1    13    14    1
     2    14    15   am
     3    15    16    2
     4    15     3    1
     5     3     4   ar
     6     4     5   ar
     7     5     6    1
     8     5     7   ar
     9     7     8   ar
    10     8     9   ar
    11     9    10   ar
    12    10     1    1
    13     1    18    1
    14    18    19   ar
    15    19    20   ar
    16    20    21   ar
    17    21    22   ar
    18    22    24    1
    19    24    25   ar
    20    25    26   ar
    21    26    30    1
    22    30    31    1
    23    31    32    1
    24    31    33    1
    25    26    27   ar
    26    27    28    1
    27    27    29   ar
    28    22    23   ar
    29    10    11   ar
    30    11    12   ar
    31    12     3   ar
    32    12     7   ar
    33    23    18   ar
    34    29    24   ar
    35    14    17    1
    36     1     2    1
@<TRIPOS>MOLECULE
*****
 33 36 0 0 0
SMALL
GASTEIGER

@<TRIPOS>ATOM
      1 N         143.2758  137.6356  161.5665 N.pl3   1  UNL1       -0.2825
      2 H         143.5939  136.7222  161.7504 H       1  UNL1        0.1551
      3 C         139.0079  139.6547  159.0901 C.ar    1  UNL1        0.1554
      4 N         138.6511  139.6113  157.6338 N.ar    1  UNL1       -0.1646
      5 N         139.7365  138.8684  156.9127 N.ar    1  UNL1       -0.2487
      6 C         139.7856  138.5901  155.4395 C.3     1  UNL1        0.1537
      7 C         140.7640  138.4526  157.9232 C.ar    1  UNL1        0.0796
      8 C         142.0515  137.6943  157.7919 C.ar    1  UNL1        0.0201
      9 C         142.8888  137.4220  159.0063 C.ar    1  UNL1        0.0162
     10 C         142.4385  137.9080  160.3521 C.ar    1  UNL1        0.0506
     11 C         141.1510  138.6663  160.4834 C.ar    1  UNL1        0.0179
     12 C         140.3138  138.9386  159.2690 C.ar    1  UNL1        0.0423
     13 C         137.8760  142.2147  161.9036 C.3     1  UNL1        0.1110
     14 N         138.6833  141.5686  160.8169 N.am    1  UNL1       -0.2979
     15 C         138.2006  140.3008  160.1768 C.2     1  UNL1        0.2654
     16 O         136.9107  139.6791  160.6234 O.2     1  UNL1       -0.2684
     17 H         139.5299  141.9767  160.5238 H       1  UNL1        0.1498
     18 C         143.6284  138.7549  162.5008 C.ar    1  UNL1        0.2221
     19 N         144.5677  139.8361  162.0551 N.ar    1  UNL1       -0.2119
     20 C         144.9203  140.9554  162.9894 C.ar    1  UNL1        0.1050
     21 C         144.3337  140.9934  164.3694 C.ar    1  UNL1        0.0596
     22 C         143.3944  139.9122  164.8151 C.ar    1  UNL1        0.1682
     23 N         143.0418  138.7929  163.8808 N.ar    1  UNL1       -0.1944
     24 N         142.8077  139.9502  166.1950 N.ar    1  UNL1       -0.2112
     25 C         141.6773  140.8255  166.6487 C.ar    1  UNL1        0.1003
     26 C         141.4194  140.5359  168.0977 C.ar    1  UNL1        0.0283
     27 C         142.3906  139.4815  168.5396 C.ar    1  UNL1        0.0782
     28 C         142.4868  138.8925  169.9157 C.3     1  UNL1        0.0537
     29 N         143.2486  139.1195  167.3637 N.ar    1  UNL1       -0.1684
     30 C         140.3740  141.1863  168.9544 C.3     1  UNL1        0.1020
     31 N         140.7421  142.3378  169.8426 N.3     1  UNL1       -0.2664
     32 C         139.7157  142.9374  170.7573 C.3     1  UNL1        0.0899
     33 C         142.1367  142.8896  169.8158 C.3     1  UNL1        0.0899
@<TRIPOS>BOND
     1    13    14    1
     2    14    15   am
     3    15    16    2
     4    15     3    1
     5     3     4   ar
     6     4     5   ar
     7     5     6    1
     8     5     7   ar
     9     7     8   ar
    10     8     9   ar
    11     9    10   ar
    12    10     1    1
    13     1    18    1
    14    18    19   ar
    15    19    20   ar
    16    20    21   ar
    17    21    22   ar
    18    22    24    1
    19    24    25   ar
    20    25    26   ar
    21    26    30    1
    22    30    31    1
    23    31    32    1
    24    31    33    1
    25    26    27   ar
    26    27    28    1
    27    27    29   ar
    28    22    23   ar
    29    10    11   ar
    30    11    12   ar
    31    12     3   ar
    32    12     7   ar
    33    23    18   ar
    34    29    24   ar
    35    14    17    1
    36     1     2    1
@<TRIPOS>MOLECULE
*****
 33 36 0 0 0
SMALL
GASTEIGER

@<TRIPOS>ATOM
      1 N         143.9566  140.5329  161.6691 N.pl3   1  UNL1       -0.2825
      2 H         144.9289  140.3885  161.6153 H       1  UNL1        0.1551
      3 C         140.1297  144.1507  160.8379 C.ar    1  UNL1        0.1554
      4 N         140.0088  145.1638  159.7383 N.ar    1  UNL1       -0.1646
      5 N         141.1973  145.0121  158.8357 N.ar    1  UNL1       -0.2487
      6 C         141.4806  145.8246  157.6071 C.3     1  UNL1        0.1537
      7 C         142.0526  143.9054  159.3775 C.ar    1  UNL1        0.0796
      8 C         143.3470  143.3137  158.9039 C.ar    1  UNL1        0.0201
      9 C         143.9816  142.1895  159.6678 C.ar    1  UNL1        0.0162
     10 C         143.3219  141.6571  160.9052 C.ar    1  UNL1        0.0506
     11 C         142.0275  142.2489  161.3788 C.ar    1  UNL1        0.0179
     12 C         141.3929  143.3730  160.6150 C.ar    1  UNL1        0.0423
     13 C         137.4847  142.4342  163.2478 C.3     1  UNL1        0.1110
     14 N         138.4563  142.6344  162.1227 N.am    1  UNL1       -0.2979
     15 C         139.1581  143.9505  161.9630 C.2     1  UNL1        0.2654
     16 O         138.8882  145.0663  162.9284 O.2     1  UNL1       -0.2684
     17 H         138.6334  141.9020  161.4891 H       1  UNL1        0.1498
     18 C         143.1098  139.6288  162.5149 C.ar    1  UNL1        0.2221
     19 N         142.4801  138.4089  161.9106 N.ar    1  UNL1       -0.2119
     20 C         141.6333  137.5047  162.7565 C.ar    1  UNL1        0.1050
     21 C         141.4161  137.8206  164.2067 C.ar    1  UNL1        0.0596
     22 C         142.0457  139.0406  164.8110 C.ar    1  UNL1        0.1682
     23 N         142.8925  139.9447  163.9652 N.ar    1  UNL1       -0.1944
     24 N         141.8285  139.3565  166.2612 N.ar    1  UNL1       -0.2112
     25 C         140.6555  140.0930  166.8370 C.ar    1  UNL1        0.1003
     26 C         140.8483  140.1831  168.3219 C.ar    1  UNL1        0.0283
     27 C         142.1404  139.5022  168.6637 C.ar    1  UNL1        0.0782
     28 C         142.7242  139.3575  170.0378 C.3     1  UNL1        0.0537
     29 N         142.7462  138.9914  167.3901 N.ar    1  UNL1       -0.1684
     30 C         139.9131  140.8388  169.2942 C.3     1  UNL1        0.1020
     31 N         140.3236  142.0995  169.9958 N.3     1  UNL1       -0.2664
     32 C         140.6917  142.0630  171.4495 C.3     1  UNL1        0.0899
     33 C         140.3659  143.3967  169.2437 C.3     1  UNL1        0.0899
@<TRIPOS>BOND
     1    13    14    1
     2    14    15   am
     3    15    16    2
     4    15     3    1
     5     3     4   ar
     6     4     5   ar
     7     5     6    1
     8     5     7   ar
     9     7     8   ar
    10     8     9   ar
    11     9    10   ar
    12    10     1    1
    13     1    18    1
    14    18    19   ar
    15    19    20   ar
    16    20    21   ar
    17    21    22   ar
    18    22    24    1
    19    24    25   ar
    20    25    26   ar
    21    26    30    1
    22    30    31    1
    23    31    32    1
    24    31    33    1
    25    26    27   ar
    26    27    28    1
    27    27    29   ar
    28    22    23   ar
    29    10    11   ar
    30    11    12   ar
    31    12     3   ar
    32    12     7   ar
    33    23    18   ar
    34    29    24   ar
    35    14    17    1
    36     1     2    1
@<TRIPOS>MOLECULE
*****
 33 36 0 0 0
SMALL
GASTEIGER

@<TRIPOS>ATOM
      1 N         143.3778  143.5999  162.7494 N.pl3   1  UNL1       -0.2825
      2 H         144.2752  143.5622  162.3463 H       1  UNL1        0.1551
      3 C         140.8058  140.0345  165.7655 C.ar    1  UNL1        0.1554
      4 N         140.9898  139.7184  167.2202 N.ar    1  UNL1       -0.1646
      5 N         142.0753  140.6056  167.7536 N.ar    1  UNL1       -0.2487
      6 C         142.5846  140.6250  169.1644 C.3     1  UNL1        0.1537
      7 C         142.5622  141.4700  166.6286 C.ar    1  UNL1        0.0796
      8 C         143.6187  142.5329  166.5643 C.ar    1  UNL1        0.0201
      9 C         143.8905  143.2428  165.2712 C.ar    1  UNL1        0.0162
     10 C         143.1059  142.8899  164.0425 C.ar    1  UNL1        0.0506
     11 C         142.0495  141.8270  164.1068 C.ar    1  UNL1        0.0179
     12 C         141.7776  141.1171  165.3998 C.ar    1  UNL1        0.0423
     13 C         139.3260  137.8334  162.8132 C.3     1  UNL1        0.1110
     14 N         140.3092  138.4854  163.7397 N.am    1  UNL1       -0.2979
     15 C         139.8226  139.3826  164.8390 C.2     1  UNL1        0.2654
     16 O         138.3530  139.6277  165.0118 O.2     1  UNL1       -0.2684
     17 H         141.2738  138.3245  163.6263 H       1  UNL1        0.1498
     18 C         142.2823  144.3673  162.0704 C.ar    1  UNL1        0.2221
     19 N         141.1933  144.9997  162.8853 N.ar    1  UNL1       -0.2119
     20 C         140.0978  145.7671  162.2062 C.ar    1  UNL1        0.1050
     21 C         140.0914  145.9021  160.7123 C.ar    1  UNL1        0.0596
     22 C         141.1805  145.2697  159.8975 C.ar    1  UNL1        0.1682
     23 N         142.2759  144.5023  160.5764 N.ar    1  UNL1       -0.1944
     24 N         141.1741  145.4047  158.4036 N.ar    1  UNL1       -0.2112
     25 C         140.0726  145.9989  157.5767 C.ar    1  UNL1        0.1003
     26 C         140.4858  145.9306  156.1363 C.ar    1  UNL1        0.0283
     27 C         141.8426  145.2941  156.0731 C.ar    1  UNL1        0.0782
     28 C         142.6350  145.0292  154.8273 C.3     1  UNL1        0.0537
     29 N         142.2680  144.9691  157.4743 N.ar    1  UNL1       -0.1684
     30 C         139.6831  146.4139  154.9650 C.3     1  UNL1        0.1020
     31 N         139.7029  147.8662  154.5902 N.3     1  UNL1       -0.2664
     32 C         138.9261  148.8607  155.4011 C.3     1  UNL1        0.0899
     33 C         140.4996  148.3241  153.4045 C.3     1  UNL1        0.0899
@<TRIPOS>BOND
     1    13    14    1
     2    14    15   am
     3    15    16    2
     4    15     3    1
     5     3     4   ar
     6     4     5   ar
     7     5     6    1
     8     5     7   ar
     9     7     8   ar
    10     8     9   ar
    11     9    10   ar
    12    10     1    1
    13     1    18    1
    14    18    19   ar
    15    19    20   ar
    16    20    21   ar
    17    21    22   ar
    18    22    24    1
    19    24    25   ar
    20    25    26   ar
    21    26    30    1
    22    30    31    1
    23    31    32    1
    24    31    33    1
    25    26    27   ar
    26    27    28    1
    27    27    29   ar
    28    22    23   ar
    29    10    11   ar
    30    11    12   ar
    31    12     3   ar
    32    12     7   ar
    33    23    18   ar
    34    29    24   ar
    35    14    17    1
    36     1     2    1
