@<TRIPOS>MOLECULE
*****
 24 27 0 0 0
SMALL
GASTEIGER

@<TRIPOS>ATOM
      1 CL        139.7398  139.7525  171.0719 Cl      1  UNL1       -0.0821
      2 C         140.6002  140.3963  170.0253 C.ar    1  UNL1        0.0615
      3 C         142.0683  140.5814  170.2711 C.ar    1  UNL1        0.0129
      4 C         142.9286  141.2252  169.2246 C.ar    1  UNL1        0.0192
      5 C         142.3210  141.6839  167.9322 C.ar    1  UNL1        0.0920
      6 C         140.8529  141.4988  167.6863 C.ar    1  UNL1        0.2072
      7 C         139.9925  140.8550  168.7329 C.ar    1  UNL1        0.0593
      8 N         140.0515  141.8811  166.4773 N.2     1  UNL1       -0.0388
      9 C         140.5205  142.5428  165.2155 C.2     1  UNL1        0.3251
     10 C         141.9065  142.9858  164.8510 C.ar    1  UNL1        0.0956
     11 C         141.9422  143.6067  163.4861 C.ar    1  UNL1        0.0086
     12 C         143.2374  144.1182  162.9285 C.ar    1  UNL1        0.0003
     13 C         144.4968  144.0087  163.7359 C.ar    1  UNL1        0.0013
     14 C         144.4611  143.3878  165.1009 C.ar    1  UNL1        0.0149
     15 C         143.1659  142.8763  165.6584 C.ar    1  UNL1        0.0556
     16 N         143.3503  142.2969  167.0297 N.pl3   1  UNL1       -0.3094
     17 H         144.2684  142.3224  167.3842 H       1  UNL1        0.1523
     18 N         139.4636  142.7950  164.1813 N.pl3   1  UNL1       -0.1877
     19 C         139.0885  141.7127  163.2129 C.3     1  UNL1        0.2195
     20 C         138.0317  141.9649  162.1787 C.3     1  UNL1        0.1202
     21 N         137.3499  143.2994  162.1130 N.3     1  UNL1       -0.2906
     22 C         137.7250  144.3816  163.0814 C.3     1  UNL1        0.1202
     23 C         138.7818  144.1296  164.1156 C.3     1  UNL1        0.2195
     24 H         136.3522  143.1267  162.2363 H       1  UNL1        0.1235
@<TRIPOS>BOND
     1     1     2    1
     2     2     3   ar
     3     3     4   ar
     4     4     5   ar
     5     5     6   ar
     6     6     7   ar
     7     6     8    1
     8     8     9    2
     9     9    18    1
    10    18    19    1
    11    19    20    1
    12    20    21    1
    13    21    22    1
    14    22    23    1
    15     9    10    1
    16    10    11   ar
    17    11    12   ar
    18    12    13   ar
    19    13    14   ar
    20    14    15   ar
    21    15    16    1
    22     7     2   ar
    23    23    18    1
    24    15    10   ar
    25    16     5    1
    26    21    24    1
    27    16    17    1
@<TRIPOS>MOLECULE
*****
 24 27 0 0 0
SMALL
GASTEIGER

@<TRIPOS>ATOM
      1 CL        142.9826  139.7608  170.6061 Cl      1  UNL1       -0.0821
      2 C         142.2364  140.6157  169.6252 C.ar    1  UNL1        0.0615
      3 C         141.9002  142.0358  169.9718 C.ar    1  UNL1        0.0129
      4 C         141.1540  142.8908  168.9909 C.ar    1  UNL1        0.0192
      5 C         140.7439  142.3256  167.6633 C.ar    1  UNL1        0.0920
      6 C         141.0801  140.9054  167.3167 C.ar    1  UNL1        0.2072
      7 C         141.8263  140.0505  168.2976 C.ar    1  UNL1        0.0593
      8 N         140.7678  140.1507  166.0585 N.2     1  UNL1       -0.0388
      9 C         140.0421  140.6298  164.8363 C.2     1  UNL1        0.3251
     10 C         139.4495  141.9819  164.5703 C.ar    1  UNL1        0.0956
     11 C         138.8090  142.0426  163.2153 C.ar    1  UNL1        0.0086
     12 C         138.1551  143.3101  162.7509 C.ar    1  UNL1        0.0003
     13 C         138.1419  144.5171  163.6415 C.ar    1  UNL1        0.0013
     14 C         138.7825  144.4564  164.9965 C.ar    1  UNL1        0.0149
     15 C         139.4363  143.1889  165.4608 C.ar    1  UNL1        0.0556
     16 N         140.0123  143.3418  166.8374 N.pl3   1  UNL1       -0.3094
     17 H         139.8947  144.2260  167.2538 H       1  UNL1        0.1523
     18 N         139.8887  139.6238  163.7343 N.pl3   1  UNL1       -0.1877
     19 C         138.6283  138.8180  163.6245 C.3     1  UNL1        0.2195
     20 C         138.4749  137.8120  162.5225 C.3     1  UNL1        0.1202
     21 N         139.5820  137.6117  161.5303 N.3     1  UNL1       -0.2906
     22 C         140.8423  138.4175  161.6401 C.3     1  UNL1        0.1202
     23 C         140.9958  139.4235  162.7421 C.3     1  UNL1        0.2195
     24 H         139.1894  137.8032  160.6085 H       1  UNL1        0.1235
@<TRIPOS>BOND
     1     1     2    1
     2     2     3   ar
     3     3     4   ar
     4     4     5   ar
     5     5     6   ar
     6     6     7   ar
     7     6     8    1
     8     8     9    2
     9     9    18    1
    10    18    19    1
    11    19    20    1
    12    20    21    1
    13    21    22    1
    14    22    23    1
    15     9    10    1
    16    10    11   ar
    17    11    12   ar
    18    12    13   ar
    19    13    14   ar
    20    14    15   ar
    21    15    16    1
    22     7     2   ar
    23    23    18    1
    24    15    10   ar
    25    16     5    1
    26    21    24    1
    27    16    17    1
@<TRIPOS>MOLECULE
*****
 24 27 0 0 0
SMALL
GASTEIGER

@<TRIPOS>ATOM
      1 CL        139.7034  146.3809  161.9250 Cl      1  UNL1       -0.0821
      2 C         140.4356  145.1576  162.3912 C.ar    1  UNL1        0.0615
      3 C         141.4070  144.4711  161.4774 C.ar    1  UNL1        0.0129
      4 C         142.1392  143.2478  161.9436 C.ar    1  UNL1        0.0192
      5 C         141.9001  142.7109  163.3236 C.ar    1  UNL1        0.0920
      6 C         140.9286  143.3974  164.2375 C.ar    1  UNL1        0.2072
      7 C         140.1964  144.6207  163.7713 C.ar    1  UNL1        0.0593
      8 N         140.5455  143.0309  165.6407 N.2     1  UNL1       -0.0388
      9 C         141.0392  141.8874  166.4765 C.2     1  UNL1        0.3251
     10 C         142.0379  140.8279  166.1157 C.ar    1  UNL1        0.0956
     11 C         142.2492  139.8659  167.2470 C.ar    1  UNL1        0.0086
     12 C         143.2121  138.7262  167.0924 C.ar    1  UNL1        0.0003
     13 C         143.9638  138.5487  165.8065 C.ar    1  UNL1        0.0013
     14 C         143.7526  139.5108  164.6753 C.ar    1  UNL1        0.0149
     15 C         142.7896  140.6504  164.8299 C.ar    1  UNL1        0.0556
     16 N         142.7282  141.4884  163.5873 N.pl3   1  UNL1       -0.3094
     17 H         143.3083  141.1976  162.8469 H       1  UNL1        0.1523
     18 N         140.4572  141.7904  167.8556 N.pl3   1  UNL1       -0.1877
     19 C         140.6477  142.9142  168.8308 C.3     1  UNL1        0.2195
     20 C         140.0657  142.8173  170.2099 C.3     1  UNL1        0.1202
     21 N         139.2932  141.5966  170.6138 N.3     1  UNL1       -0.2906
     22 C         139.1026  140.4729  169.6387 C.3     1  UNL1        0.1202
     23 C         139.6846  140.5697  168.2597 C.3     1  UNL1        0.2195
     24 H         138.3619  141.9134  170.8836 H       1  UNL1        0.1235
@<TRIPOS>BOND
     1     1     2    1
     2     2     3   ar
     3     3     4   ar
     4     4     5   ar
     5     5     6   ar
     6     6     7   ar
     7     6     8    1
     8     8     9    2
     9     9    18    1
    10    18    19    1
    11    19    20    1
    12    20    21    1
    13    21    22    1
    14    22    23    1
    15     9    10    1
    16    10    11   ar
    17    11    12   ar
    18    12    13   ar
    19    13    14   ar
    20    14    15   ar
    21    15    16    1
    22     7     2   ar
    23    23    18    1
    24    15    10   ar
    25    16     5    1
    26    21    24    1
    27    16    17    1
@<TRIPOS>MOLECULE
*****
 24 27 0 0 0
SMALL
GASTEIGER

@<TRIPOS>ATOM
      1 CL        140.1524  142.9568  170.7948 Cl      1  UNL1       -0.0821
      2 C         139.9951  142.0989  169.5745 C.ar    1  UNL1        0.0615
      3 C         139.3825  140.7347  169.6907 C.ar    1  UNL1        0.0129
      4 C         139.2252  139.8767  168.4704 C.ar    1  UNL1        0.0192
      5 C         139.6805  140.3829  167.1339 C.ar    1  UNL1        0.0920
      6 C         140.2932  141.7472  167.0176 C.ar    1  UNL1        0.2072
      7 C         140.4505  142.6051  168.2379 C.ar    1  UNL1        0.0593
      8 N         140.8098  142.4391  165.7910 N.2     1  UNL1       -0.0388
      9 C         140.8412  141.9375  164.3777 C.2     1  UNL1        0.3251
     10 C         140.3638  140.6202  163.8419 C.ar    1  UNL1        0.0956
     11 C         140.5812  140.5197  162.3612 C.ar    1  UNL1        0.0086
     12 C         140.1719  139.2782  161.6257 C.ar    1  UNL1        0.0003
     13 C         139.5453  138.1372  162.3709 C.ar    1  UNL1        0.0013
     14 C         139.3279  138.2377  163.8516 C.ar    1  UNL1        0.0149
     15 C         139.7372  139.4792  164.5871 C.ar    1  UNL1        0.0556
     16 N         139.4331  139.3737  166.0522 N.pl3   1  UNL1       -0.3094
     17 H         139.0159  138.5304  166.3421 H       1  UNL1        0.1523
     18 N         141.4275  142.8775  163.3664 N.pl3   1  UNL1       -0.1877
     19 C         140.5382  143.8311  162.6248 C.3     1  UNL1        0.2195
     20 C         141.1245  144.7711  161.6136 C.3     1  UNL1        0.1202
     21 N         142.6001  144.7574  161.3439 N.3     1  UNL1       -0.2906
     22 C         143.4892  143.8039  162.0854 C.3     1  UNL1        0.1202
     23 C         142.9030  142.8639  163.0967 C.3     1  UNL1        0.2195
     24 H         142.9445  145.6966  161.5431 H       1  UNL1        0.1235
@<TRIPOS>BOND
     1     1     2    1
     2     2     3   ar
     3     3     4   ar
     4     4     5   ar
     5     5     6   ar
     6     6     7   ar
     7     6     8    1
     8     8     9    2
     9     9    18    1
    10    18    19    1
    11    19    20    1
    12    20    21    1
    13    21    22    1
    14    22    23    1
    15     9    10    1
    16    10    11   ar
    17    11    12   ar
    18    12    13   ar
    19    13    14   ar
    20    14    15   ar
    21    15    16    1
    22     7     2   ar
    23    23    18    1
    24    15    10   ar
    25    16     5    1
    26    21    24    1
    27    16    17    1
@<TRIPOS>MOLECULE
*****
 24 27 0 0 0
SMALL
GASTEIGER

@<TRIPOS>ATOM
      1 CL        143.6473  142.8514  170.2956 Cl      1  UNL1       -0.0821
      2 C         142.9656  141.9328  169.3254 C.ar    1  UNL1        0.0615
      3 C         143.0004  140.4495  169.5458 C.ar    1  UNL1        0.0129
      4 C         142.3187  139.5309  168.5756 C.ar    1  UNL1        0.0192
      5 C         141.6021  140.0955  167.3850 C.ar    1  UNL1        0.0920
      6 C         141.5671  141.5789  167.1646 C.ar    1  UNL1        0.2072
      7 C         142.2489  142.4975  168.1348 C.ar    1  UNL1        0.0593
      8 N         140.9142  142.3440  166.0518 N.2     1  UNL1       -0.0388
      9 C         140.1348  141.8146  164.8846 C.2     1  UNL1        0.3251
     10 C         139.8159  140.3895  164.5418 C.ar    1  UNL1        0.0956
     11 C         139.0082  140.2966  163.2813 C.ar    1  UNL1        0.0086
     12 C         138.5823  138.9560  162.7606 C.ar    1  UNL1        0.0003
     13 C         138.9640  137.7082  163.5005 C.ar    1  UNL1        0.0013
     14 C         139.7717  137.8011  164.7610 C.ar    1  UNL1        0.0149
     15 C         140.1976  139.1418  165.2816 C.ar    1  UNL1        0.0556
     16 N         140.9926  139.0110  166.5470 N.pl3   1  UNL1       -0.3094
     17 H         141.1328  138.0917  166.8702 H       1  UNL1        0.1523
     18 N         139.6041  142.8469  163.9344 N.pl3   1  UNL1       -0.1877
     19 C         140.4780  143.3741  162.8350 C.3     1  UNL1        0.2195
     20 C         139.9473  144.4064  161.8849 C.3     1  UNL1        0.1202
     21 N         138.5428  144.9115  162.0341 N.3     1  UNL1       -0.2906
     22 C         137.6690  144.3844  163.1334 C.3     1  UNL1        0.1202
     23 C         138.1996  143.3521  164.0836 C.3     1  UNL1        0.2195
     24 H         138.0635  144.7126  161.1560 H       1  UNL1        0.1235
@<TRIPOS>BOND
     1     1     2    1
     2     2     3   ar
     3     3     4   ar
     4     4     5   ar
     5     5     6   ar
     6     6     7   ar
     7     6     8    1
     8     8     9    2
     9     9    18    1
    10    18    19    1
    11    19    20    1
    12    20    21    1
    13    21    22    1
    14    22    23    1
    15     9    10    1
    16    10    11   ar
    17    11    12   ar
    18    12    13   ar
    19    13    14   ar
    20    14    15   ar
    21    15    16    1
    22     7     2   ar
    23    23    18    1
    24    15    10   ar
    25    16     5    1
    26    21    24    1
    27    16    17    1
@<TRIPOS>MOLECULE
*****
 24 27 0 0 0
SMALL
GASTEIGER

@<TRIPOS>ATOM
      1 CL        139.3277  140.1567  170.6736 Cl      1  UNL1       -0.0821
      2 C         140.2386  140.0149  169.4903 C.ar    1  UNL1        0.0615
      3 C         141.7212  139.9119  169.6932 C.ar    1  UNL1        0.0129
      4 C         142.6321  139.7701  168.5099 C.ar    1  UNL1        0.0192
      5 C         142.0604  139.7313  167.1237 C.ar    1  UNL1        0.0920
      6 C         140.5777  139.8343  166.9208 C.ar    1  UNL1        0.2072
      7 C         139.6668  139.9761  168.1041 C.ar    1  UNL1        0.0593
      8 N         139.8063  139.8170  165.6344 N.2     1  UNL1       -0.0388
      9 C         140.3272  139.6924  164.2333 C.2     1  UNL1        0.3251
     10 C         141.7480  139.5544  163.7724 C.ar    1  UNL1        0.0956
     11 C         141.8324  139.4581  162.2779 C.ar    1  UNL1        0.0086
     12 C         143.1677  139.3143  161.6099 C.ar    1  UNL1        0.0003
     13 C         144.4185  139.2667  162.4364 C.ar    1  UNL1        0.0013
     14 C         144.3341  139.3630  163.9309 C.ar    1  UNL1        0.0149
     15 C         142.9988  139.5068  164.5989 C.ar    1  UNL1        0.0556
     16 N         143.1378  139.5856  166.0904 N.pl3   1  UNL1       -0.3094
     17 H         144.0579  139.5349  166.4369 H       1  UNL1        0.1523
     18 N         139.2901  139.7079  163.1497 N.pl3   1  UNL1       -0.1877
     19 C         138.6616  138.4241  162.6946 C.3     1  UNL1        0.2195
     20 C         137.6245  138.4396  161.6109 C.3     1  UNL1        0.1202
     21 N         137.2159  139.7389  160.9824 N.3     1  UNL1       -0.2906
     22 C         137.8443  141.0225  161.4375 C.3     1  UNL1        0.1202
     23 C         138.8814  141.0071  162.5211 C.3     1  UNL1        0.2195
     24 H         136.2112  139.8343  161.1302 H       1  UNL1        0.1235
@<TRIPOS>BOND
     1     1     2    1
     2     2     3   ar
     3     3     4   ar
     4     4     5   ar
     5     5     6   ar
     6     6     7   ar
     7     6     8    1
     8     8     9    2
     9     9    18    1
    10    18    19    1
    11    19    20    1
    12    20    21    1
    13    21    22    1
    14    22    23    1
    15     9    10    1
    16    10    11   ar
    17    11    12   ar
    18    12    13   ar
    19    13    14   ar
    20    14    15   ar
    21    15    16    1
    22     7     2   ar
    23    23    18    1
    24    15    10   ar
    25    16     5    1
    26    21    24    1
    27    16    17    1
@<TRIPOS>MOLECULE
*****
 24 27 0 0 0
SMALL
GASTEIGER

@<TRIPOS>ATOM
      1 CL        139.9829  139.8930  170.9920 Cl      1  UNL1       -0.0821
      2 C         140.7630  139.8839  169.7109 C.ar    1  UNL1        0.0615
      3 C         142.0983  139.2033  169.6507 C.ar    1  UNL1        0.0129
      4 C         142.8784  139.1942  168.3695 C.ar    1  UNL1        0.0192
      5 C         142.3232  139.8656  167.1486 C.ar    1  UNL1        0.0920
      6 C         140.9878  140.5463  167.2087 C.ar    1  UNL1        0.2072
      7 C         140.2077  140.5554  168.4898 C.ar    1  UNL1        0.0593
      8 N         140.2567  141.2697  166.1168 N.2     1  UNL1       -0.0388
      9 C         140.6805  141.4910  164.6950 C.2     1  UNL1        0.3251
     10 C         141.9399  141.0437  164.0139 C.ar    1  UNL1        0.0956
     11 C         141.9696  141.4760  162.5779 C.ar    1  UNL1        0.0086
     12 C         143.1460  141.1290  161.7144 C.ar    1  UNL1        0.0003
     13 C         144.2928  140.3499  162.2870 C.ar    1  UNL1        0.0013
     14 C         144.2631  139.9177  163.7231 C.ar    1  UNL1        0.0149
     15 C         143.0867  140.2646  164.5865 C.ar    1  UNL1        0.0556
     16 N         143.2572  139.7403  165.9816 N.pl3   1  UNL1       -0.3094
     17 H         144.0927  139.2489  166.1540 H       1  UNL1        0.1523
     18 N         139.7174  142.2616  163.8413 N.pl3   1  UNL1       -0.1877
     19 C         139.7521  143.7612  163.8380 C.3     1  UNL1        0.2195
     20 C         138.7890  144.5318  162.9844 C.3     1  UNL1        0.1202
     21 N         137.7913  143.8027  162.1340 N.3     1  UNL1       -0.2906
     22 C         137.7566  142.3032  162.1373 C.3     1  UNL1        0.1202
     23 C         138.7197  141.5326  162.9909 C.3     1  UNL1        0.2195
     24 H         137.9593  144.0913  161.1702 H       1  UNL1        0.1235
@<TRIPOS>BOND
     1     1     2    1
     2     2     3   ar
     3     3     4   ar
     4     4     5   ar
     5     5     6   ar
     6     6     7   ar
     7     6     8    1
     8     8     9    2
     9     9    18    1
    10    18    19    1
    11    19    20    1
    12    20    21    1
    13    21    22    1
    14    22    23    1
    15     9    10    1
    16    10    11   ar
    17    11    12   ar
    18    12    13   ar
    19    13    14   ar
    20    14    15   ar
    21    15    16    1
    22     7     2   ar
    23    23    18    1
    24    15    10   ar
    25    16     5    1
    26    21    24    1
    27    16    17    1
@<TRIPOS>MOLECULE
*****
 24 27 0 0 0
SMALL
GASTEIGER

@<TRIPOS>ATOM
      1 CL        139.1386  143.0619  171.2257 Cl      1  UNL1       -0.0821
      2 C         139.9998  142.2441  170.3095 C.ar    1  UNL1        0.0615
      3 C         140.4438  140.8724  170.7233 C.ar    1  UNL1        0.0129
      4 C         141.3051  140.0546  169.8072 C.ar    1  UNL1        0.0192
      5 C         141.7224  140.6085  168.4771 C.ar    1  UNL1        0.0920
      6 C         141.2784  141.9802  168.0632 C.ar    1  UNL1        0.2072
      7 C         140.4172  142.7980  168.9794 C.ar    1  UNL1        0.0593
      8 N         141.5788  142.7164  166.7912 N.2     1  UNL1       -0.0388
      9 C         142.3973  142.2626  165.6190 C.2     1  UNL1        0.3251
     10 C         143.1176  140.9606  165.4292 C.ar    1  UNL1        0.0956
     11 C         143.8205  140.9112  164.1050 C.ar    1  UNL1        0.0086
     12 C         144.6031  139.6920  163.7165 C.ar    1  UNL1        0.0003
     13 C         144.6829  138.5222  164.6520 C.ar    1  UNL1        0.0013
     14 C         143.9799  138.5716  165.9762 C.ar    1  UNL1        0.0149
     15 C         143.1973  139.7908  166.3647 C.ar    1  UNL1        0.0556
     16 N         142.5763  139.6342  167.7212 N.pl3   1  UNL1       -0.3094
     17 H         142.7526  138.7787  168.1754 H       1  UNL1        0.1523
     18 N         142.5104  143.2400  164.4869 N.pl3   1  UNL1       -0.1877
     19 C         141.4303  143.3134  163.4485 C.3     1  UNL1        0.2195
     20 C         141.5435  144.2908  162.3164 C.3     1  UNL1        0.1202
     21 N         142.7367  145.1949  162.2225 N.3     1  UNL1       -0.2906
     22 C         143.8167  145.1216  163.2608 C.3     1  UNL1        0.1202
     23 C         143.7037  144.1442  164.3929 C.3     1  UNL1        0.2195
     24 H         142.3829  146.1515  162.2328 H       1  UNL1        0.1235
@<TRIPOS>BOND
     1     1     2    1
     2     2     3   ar
     3     3     4   ar
     4     4     5   ar
     5     5     6   ar
     6     6     7   ar
     7     6     8    1
     8     8     9    2
     9     9    18    1
    10    18    19    1
    11    19    20    1
    12    20    21    1
    13    21    22    1
    14    22    23    1
    15     9    10    1
    16    10    11   ar
    17    11    12   ar
    18    12    13   ar
    19    13    14   ar
    20    14    15   ar
    21    15    16    1
    22     7     2   ar
    23    23    18    1
    24    15    10   ar
    25    16     5    1
    26    21    24    1
    27    16    17    1
@<TRIPOS>MOLECULE
*****
 24 27 0 0 0
SMALL
GASTEIGER

@<TRIPOS>ATOM
      1 CL        137.0623  137.6846  167.2173 Cl      1  UNL1       -0.0821
      2 C         138.2308  138.6054  167.0252 C.ar    1  UNL1        0.0615
      3 C         138.5850  139.5999  168.0907 C.ar    1  UNL1        0.0129
      4 C         139.7534  140.5207  167.8985 C.ar    1  UNL1        0.0192
      5 C         140.5676  140.4470  166.6409 C.ar    1  UNL1        0.0920
      6 C         140.2133  139.4525  165.5754 C.ar    1  UNL1        0.2072
      7 C         139.0449  138.5317  165.7675 C.ar    1  UNL1        0.0593
      8 N         140.8874  139.2147  164.2566 N.2     1  UNL1       -0.0388
      9 C         142.0821  139.9128  163.6777 C.2     1  UNL1        0.3251
     10 C         142.8980  141.0210  164.2744 C.ar    1  UNL1        0.0956
     11 C         144.0129  141.4344  163.3601 C.ar    1  UNL1        0.0086
     12 C         144.9504  142.5316  163.7690 C.ar    1  UNL1        0.0003
     13 C         144.7730  143.2155  165.0922 C.ar    1  UNL1        0.0013
     14 C         143.6580  142.8021  166.0065 C.ar    1  UNL1        0.0149
     15 C         142.7206  141.7049  165.5976 C.ar    1  UNL1        0.0556
     16 N         141.6834  141.4494  166.6508 N.pl3   1  UNL1       -0.3094
     17 H         141.7429  142.0144  167.4548 H       1  UNL1        0.1523
     18 N         142.5188  139.4401  162.3227 N.pl3   1  UNL1       -0.1877
     19 C         143.4260  138.2519  162.1993 C.3     1  UNL1        0.2195
     20 C         143.8627  137.7792  160.8443 C.3     1  UNL1        0.1202
     21 N         143.3922  138.4948  159.6128 N.3     1  UNL1       -0.2906
     22 C         142.4851  139.6829  159.7362 C.3     1  UNL1        0.1202
     23 C         142.0484  140.1556  161.0911 C.3     1  UNL1        0.2195
     24 H         142.9005  137.8069  159.0423 H       1  UNL1        0.1235
@<TRIPOS>BOND
     1     1     2    1
     2     2     3   ar
     3     3     4   ar
     4     4     5   ar
     5     5     6   ar
     6     6     7   ar
     7     6     8    1
     8     8     9    2
     9     9    18    1
    10    18    19    1
    11    19    20    1
    12    20    21    1
    13    21    22    1
    14    22    23    1
    15     9    10    1
    16    10    11   ar
    17    11    12   ar
    18    12    13   ar
    19    13    14   ar
    20    14    15   ar
    21    15    16    1
    22     7     2   ar
    23    23    18    1
    24    15    10   ar
    25    16     5    1
    26    21    24    1
    27    16    17    1
