@<TRIPOS>MOLECULE
*****
 22 24 0 0 0
SMALL
GASTEIGER

@<TRIPOS>ATOM
      1 C         139.1157  138.3441  165.7899 C.2     1  UNL1        0.0553
      2 C         140.2084  139.2723  166.2308 C.2     1  UNL1        0.0002
      3 C         141.4225  139.4635  165.3709 C.2     1  UNL1        0.0084
      4 C         141.5439  138.7266  164.0701 C.2     1  UNL1        0.1023
      5 C         142.6149  138.7137  163.0199 C.2     1  UNL1        0.3531
      6 N         142.1841  137.7775  161.9300 N.2     1  UNL1        0.0802
      7 N         140.8469  137.2118  162.3065 N.2     1  UNL1       -0.0381
      8 C         140.4512  137.7984  163.6292 C.2     1  UNL1        0.1168
      9 C         139.2371  137.6072  164.4891 C.3     1  UNL1        0.0802
     10 F         136.6876  137.9617  167.5097 F       1  UNL1       -0.1662
     11 C         137.9016  138.1529  166.6498 C.3     1  UNL1        0.4153
     12 F         137.9777  139.5890  167.0764 F       1  UNL1       -0.1662
     13 F         137.8256  136.7169  166.2232 F       1  UNL1       -0.1662
     14 N         143.8924  139.4991  163.0538 N.pl3   1  UNL1       -0.1958
     15 H         144.7528  139.0464  162.8990 H       1  UNL1        0.2986
     16 C         143.8589  140.9743  163.3235 C.ar    1  UNL1        0.1551
     17 C         144.5040  141.5254  164.5604 C.ar    1  UNL1        0.0442
     18 C         144.4706  143.0006  164.8301 C.ar    1  UNL1        0.0343
     19 C         143.7920  143.9246  163.8628 C.ar    1  UNL1        0.1386
     20 CL        143.7586  145.3998  164.1326 Cl      1  UNL1       -0.0613
     21 N         143.1469  143.3735  162.6259 N.ar    1  UNL1       -0.2289
     22 C         143.1803  141.8983  162.3562 C.ar    1  UNL1        0.1398
@<TRIPOS>BOND
     1    10    11    1
     2    11    12    1
     3    11    13    1
     4    11     1    1
     5     1     2    2
     6     2     3    1
     7     3     4    2
     8     4     5    1
     9     5    14    1
    10    14    16    1
    11    16    17   ar
    12    17    18   ar
    13    18    19   ar
    14    19    20    1
    15    19    21   ar
    16    21    22   ar
    17     5     6    2
    18     6     7    1
    19     7     8    2
    20     8     9    1
    21     9     1    1
    22     8     4    1
    23    22    16   ar
    24    14    15    1
@<TRIPOS>MOLECULE
*****
 22 24 0 0 0
SMALL
GASTEIGER

@<TRIPOS>ATOM
      1 C         141.5953  142.0588  169.0406 C.2     1  UNL1        0.0553
      2 C         141.6997  142.1228  167.5456 C.2     1  UNL1        0.0002
      3 C         140.7526  141.3314  166.6931 C.2     1  UNL1        0.0084
      4 C         139.7012  140.4759  167.3355 C.2     1  UNL1        0.1023
      5 C         138.6362  139.5915  166.7582 C.2     1  UNL1        0.3531
      6 N         137.8735  138.9808  167.8964 N.2     1  UNL1        0.0802
      7 N         138.4673  139.4878  169.1772 N.2     1  UNL1       -0.0381
      8 C         139.5969  140.4119  168.8305 C.2     1  UNL1        0.1168
      9 C         140.5439  141.2033  169.6830 C.3     1  UNL1        0.0802
     10 F         143.4894  143.6416  170.7456 F       1  UNL1       -0.1662
     11 C         142.5424  142.8502  169.8931 C.3     1  UNL1        0.4153
     12 F         143.5999  141.8065  169.6872 F       1  UNL1       -0.1662
     13 F         141.4848  143.8938  170.0990 F       1  UNL1       -0.1662
     14 N         138.3789  139.3586  165.2990 N.pl3   1  UNL1       -0.1958
     15 H         137.4716  139.4738  164.9345 H       1  UNL1        0.2986
     16 C         139.5040  138.9501  164.3949 C.ar    1  UNL1        0.1551
     17 C         140.1667  137.6169  164.5775 C.ar    1  UNL1        0.0442
     18 C         141.2918  137.2085  163.6734 C.ar    1  UNL1        0.0343
     19 C         141.7541  138.1332  162.5867 C.ar    1  UNL1        0.1386
     20 CL        142.8792  137.7247  161.6826 Cl      1  UNL1       -0.0613
     21 N         141.0914  139.4664  162.4040 N.ar    1  UNL1       -0.2289
     22 C         139.9663  139.8749  163.3081 C.ar    1  UNL1        0.1398
@<TRIPOS>BOND
     1    10    11    1
     2    11    12    1
     3    11    13    1
     4    11     1    1
     5     1     2    2
     6     2     3    1
     7     3     4    2
     8     4     5    1
     9     5    14    1
    10    14    16    1
    11    16    17   ar
    12    17    18   ar
    13    18    19   ar
    14    19    20    1
    15    19    21   ar
    16    21    22   ar
    17     5     6    2
    18     6     7    1
    19     7     8    2
    20     8     9    1
    21     9     1    1
    22     8     4    1
    23    22    16   ar
    24    14    15    1
@<TRIPOS>MOLECULE
*****
 22 24 0 0 0
SMALL
GASTEIGER

@<TRIPOS>ATOM
      1 C         141.6631  141.9971  169.1959 C.2     1  UNL1        0.0553
      2 C         141.9881  141.7773  167.7481 C.2     1  UNL1        0.0002
      3 C         141.1232  140.8803  166.9130 C.2     1  UNL1        0.0084
      4 C         139.9333  140.2031  167.5257 C.2     1  UNL1        0.1023
      5 C         138.9055  139.2708  166.9563 C.2     1  UNL1        0.3531
      6 N         137.9452  138.9143  168.0521 N.2     1  UNL1        0.0802
      7 N         138.3796  139.6263  169.2988 N.2     1  UNL1       -0.0381
      8 C         139.6083  140.4228  168.9735 C.2     1  UNL1        0.1168
      9 C         140.4732  141.3198  169.8085 C.3     1  UNL1        0.0802
     10 F         143.3929  143.7911  170.8660 F       1  UNL1       -0.1662
     11 C         142.5280  142.8941  170.0309 C.3     1  UNL1        0.4153
     12 F         143.6327  141.8809  169.9751 F       1  UNL1       -0.1662
     13 F         141.4233  143.9073  170.0868 F       1  UNL1       -0.1662
     14 N         138.8480  138.7809  165.5397 N.pl3   1  UNL1       -0.1958
     15 H         138.9335  137.8192  165.3476 H       1  UNL1        0.2986
     16 C         138.6601  139.7565  164.4158 C.ar    1  UNL1        0.1551
     17 C         137.9363  141.0480  164.6569 C.ar    1  UNL1        0.0442
     18 C         137.7485  142.0235  163.5330 C.ar    1  UNL1        0.0343
     19 C         138.2843  141.7075  162.1681 C.ar    1  UNL1        0.1386
     20 CL        138.0964  142.6831  161.0443 Cl      1  UNL1       -0.0613
     21 N         139.0081  140.4160  161.9271 N.ar    1  UNL1       -0.2289
     22 C         139.1960  139.4404  163.0509 C.ar    1  UNL1        0.1398
@<TRIPOS>BOND
     1    10    11    1
     2    11    12    1
     3    11    13    1
     4    11     1    1
     5     1     2    2
     6     2     3    1
     7     3     4    2
     8     4     5    1
     9     5    14    1
    10    14    16    1
    11    16    17   ar
    12    17    18   ar
    13    18    19   ar
    14    19    20    1
    15    19    21   ar
    16    21    22   ar
    17     5     6    2
    18     6     7    1
    19     7     8    2
    20     8     9    1
    21     9     1    1
    22     8     4    1
    23    22    16   ar
    24    14    15    1
@<TRIPOS>MOLECULE
*****
 22 24 0 0 0
SMALL
GASTEIGER

@<TRIPOS>ATOM
      1 C         140.7025  142.0790  169.1108 C.2     1  UNL1        0.0553
      2 C         140.6751  142.4996  167.6713 C.2     1  UNL1        0.0002
      3 C         141.4214  141.7027  166.6427 C.2     1  UNL1        0.0084
      4 C         142.1950  140.4851  167.0536 C.2     1  UNL1        0.1023
      5 C         143.0211  139.5089  166.2696 C.2     1  UNL1        0.3531
      6 N         143.5590  138.4849  167.2246 N.2     1  UNL1        0.0802
      7 N         143.0654  138.8282  168.5988 N.2     1  UNL1       -0.0381
      8 C         142.2224  140.0644  168.4931 C.2     1  UNL1        0.1168
      9 C         141.4761  140.8614  169.5217 C.3     1  UNL1        0.0802
     10 F         139.2100  143.6728  171.1680 F       1  UNL1       -0.1662
     11 C         139.9563  142.8759  170.1394 C.3     1  UNL1        0.4153
     12 F         140.9143  144.0148  169.9520 F       1  UNL1       -0.1662
     13 F         138.9983  141.7370  170.3268 F       1  UNL1       -0.1662
     14 N         143.2662  139.5496  164.7904 N.pl3   1  UNL1       -0.1958
     15 H         144.1438  139.8312  164.4444 H       1  UNL1        0.2986
     16 C         142.1741  139.1614  163.8382 C.ar    1  UNL1        0.1551
     17 C         141.3698  140.2220  163.1466 C.ar    1  UNL1        0.0442
     18 C         140.2777  139.8337  162.1945 C.ar    1  UNL1        0.0343
     19 C         139.9899  138.3848  161.9339 C.ar    1  UNL1        0.1386
     20 CL        138.8977  137.9966  160.9817 Cl      1  UNL1       -0.0613
     21 N         140.7941  137.3242  162.6255 N.ar    1  UNL1       -0.2289
     22 C         141.8862  137.7125  163.5776 C.ar    1  UNL1        0.1398
@<TRIPOS>BOND
     1    10    11    1
     2    11    12    1
     3    11    13    1
     4    11     1    1
     5     1     2    2
     6     2     3    1
     7     3     4    2
     8     4     5    1
     9     5    14    1
    10    14    16    1
    11    16    17   ar
    12    17    18   ar
    13    18    19   ar
    14    19    20    1
    15    19    21   ar
    16    21    22   ar
    17     5     6    2
    18     6     7    1
    19     7     8    2
    20     8     9    1
    21     9     1    1
    22     8     4    1
    23    22    16   ar
    24    14    15    1
@<TRIPOS>MOLECULE
*****
 22 24 0 0 0
SMALL
GASTEIGER

@<TRIPOS>ATOM
      1 C         142.3072  138.8109  165.4397 C.2     1  UNL1        0.0553
      2 C         141.7593  140.1667  165.7735 C.2     1  UNL1        0.0002
      3 C         140.4438  140.6056  165.2018 C.2     1  UNL1        0.0084
      4 C         139.6763  139.6887  164.2963 C.2     1  UNL1        0.1023
      5 C         138.3632  139.8452  163.5883 C.2     1  UNL1        0.3531
      6 N         138.0995  138.5860  162.8169 N.2     1  UNL1        0.0802
      7 N         139.2497  137.6513  163.0481 N.2     1  UNL1       -0.0381
      8 C         140.2242  138.3329  163.9625 C.2     1  UNL1        0.1168
      9 C         141.5397  137.8940  164.5342 C.3     1  UNL1        0.0802
     10 F         144.9382  137.9331  166.5831 F       1  UNL1       -0.1662
     11 C         143.6227  138.3720  166.0114 C.3     1  UNL1        0.4153
     12 F         144.2320  138.4135  164.6413 F       1  UNL1       -0.1662
     13 F         143.0135  138.3305  167.3815 F       1  UNL1       -0.1662
     14 N         137.4704  141.0494  163.6422 N.pl3   1  UNL1       -0.1958
     15 H         136.5422  140.9602  163.9580 H       1  UNL1        0.2986
     16 C         137.9920  142.3894  163.2151 C.ar    1  UNL1        0.1551
     17 C         138.2741  143.4463  164.2414 C.ar    1  UNL1        0.0442
     18 C         138.7956  144.7863  163.8143 C.ar    1  UNL1        0.0343
     19 C         139.0350  145.0693  162.3608 C.ar    1  UNL1        0.1386
     20 CL        139.5565  146.4094  161.9337 Cl      1  UNL1       -0.0613
     21 N         138.7529  144.0124  161.3345 N.ar    1  UNL1       -0.2289
     22 C         138.2314  142.6724  161.7616 C.ar    1  UNL1        0.1398
@<TRIPOS>BOND
     1    10    11    1
     2    11    12    1
     3    11    13    1
     4    11     1    1
     5     1     2    2
     6     2     3    1
     7     3     4    2
     8     4     5    1
     9     5    14    1
    10    14    16    1
    11    16    17   ar
    12    17    18   ar
    13    18    19   ar
    14    19    20    1
    15    19    21   ar
    16    21    22   ar
    17     5     6    2
    18     6     7    1
    19     7     8    2
    20     8     9    1
    21     9     1    1
    22     8     4    1
    23    22    16   ar
    24    14    15    1
@<TRIPOS>MOLECULE
*****
 22 24 0 0 0
SMALL
GASTEIGER

@<TRIPOS>ATOM
      1 C         140.8138  141.4878  169.0471 C.2     1  UNL1        0.0553
      2 C         141.0775  142.0989  167.7028 C.2     1  UNL1        0.0002
      3 C         140.3388  141.6024  166.4954 C.2     1  UNL1        0.0084
      4 C         139.3364  140.4950  166.6322 C.2     1  UNL1        0.1023
      5 C         138.4619  139.8031  165.6290 C.2     1  UNL1        0.3531
      6 N         137.6577  138.7644  166.3532 N.2     1  UNL1        0.0802
      7 N         138.0352  138.8144  167.8040 N.2     1  UNL1       -0.0381
      8 C         139.0727  139.8840  167.9764 C.2     1  UNL1        0.1168
      9 C         139.8114  140.3804  169.1839 C.3     1  UNL1        0.0802
     10 F         142.2912  142.4807  171.4619 F       1  UNL1       -0.1662
     11 C         141.5525  141.9843  170.2545 C.3     1  UNL1        0.4153
     12 F         141.1648  140.7429  171.0020 F       1  UNL1       -0.1662
     13 F         141.9402  143.2256  169.5070 F       1  UNL1       -0.1662
     14 N         138.4021  140.0981  164.1595 N.pl3   1  UNL1       -0.1958
     15 H         138.2217  139.3727  163.5187 H       1  UNL1        0.2986
     16 C         138.6171  141.4983  163.6662 C.ar    1  UNL1        0.1551
     17 C         137.6643  142.5873  164.0615 C.ar    1  UNL1        0.0442
     18 C         137.8793  143.9875  163.5683 C.ar    1  UNL1        0.0343
     19 C         139.0471  144.2986  162.6797 C.ar    1  UNL1        0.1386
     20 CL        139.2620  145.6989  162.1865 Cl      1  UNL1       -0.0613
     21 N         139.9998  143.2096  162.2845 N.ar    1  UNL1       -0.2289
     22 C         139.7848  141.8094  162.7777 C.ar    1  UNL1        0.1398
@<TRIPOS>BOND
     1    10    11    1
     2    11    12    1
     3    11    13    1
     4    11     1    1
     5     1     2    2
     6     2     3    1
     7     3     4    2
     8     4     5    1
     9     5    14    1
    10    14    16    1
    11    16    17   ar
    12    17    18   ar
    13    18    19   ar
    14    19    20    1
    15    19    21   ar
    16    21    22   ar
    17     5     6    2
    18     6     7    1
    19     7     8    2
    20     8     9    1
    21     9     1    1
    22     8     4    1
    23    22    16   ar
    24    14    15    1
@<TRIPOS>MOLECULE
*****
 22 24 0 0 0
SMALL
GASTEIGER

@<TRIPOS>ATOM
      1 C         140.6333  141.7359  169.1214 C.2     1  UNL1        0.0553
      2 C         140.3999  141.8832  167.6470 C.2     1  UNL1        0.0002
      3 C         141.0953  140.9688  166.6825 C.2     1  UNL1        0.0084
      4 C         142.0240  139.9070  167.1924 C.2     1  UNL1        0.1023
      5 C         142.8437  138.8674  166.4872 C.2     1  UNL1        0.3531
      6 N         143.5838  138.0776  167.5257 N.2     1  UNL1        0.0802
      7 N         143.2214  138.6290  168.8728 N.2     1  UNL1       -0.0381
      8 C         142.2574  139.7597  168.6667 C.2     1  UNL1        0.1168
      9 C         141.5621  140.6742  169.6312 C.3     1  UNL1        0.0802
     10 F         139.2425  143.5648  171.0504 F       1  UNL1       -0.1662
     11 C         139.9379  142.6503  170.0859 C.3     1  UNL1        0.4153
     12 F         138.8799  141.6107  170.3088 F       1  UNL1       -0.1662
     13 F         140.9959  143.6900  169.8630 F       1  UNL1       -0.1662
     14 N         142.9115  138.6550  165.0039 N.pl3   1  UNL1       -0.1958
     15 H         142.6351  137.7929  164.6170 H       1  UNL1        0.2986
     16 C         143.4004  139.7559  164.1101 C.ar    1  UNL1        0.1551
     17 C         144.8492  140.1442  164.1221 C.ar    1  UNL1        0.0442
     18 C         145.3380  141.2452  163.2283 C.ar    1  UNL1        0.0343
     19 C         144.3781  141.9579  162.3225 C.ar    1  UNL1        0.1386
     20 CL        144.8670  143.0589  161.4287 Cl      1  UNL1       -0.0613
     21 N         142.9293  141.5696  162.3105 N.ar    1  UNL1       -0.2289
     22 C         142.4404  140.4686  163.2043 C.ar    1  UNL1        0.1398
@<TRIPOS>BOND
     1    10    11    1
     2    11    12    1
     3    11    13    1
     4    11     1    1
     5     1     2    2
     6     2     3    1
     7     3     4    2
     8     4     5    1
     9     5    14    1
    10    14    16    1
    11    16    17   ar
    12    17    18   ar
    13    18    19   ar
    14    19    20    1
    15    19    21   ar
    16    21    22   ar
    17     5     6    2
    18     6     7    1
    19     7     8    2
    20     8     9    1
    21     9     1    1
    22     8     4    1
    23    22    16   ar
    24    14    15    1
@<TRIPOS>MOLECULE
*****
 22 24 0 0 0
SMALL
GASTEIGER

@<TRIPOS>ATOM
      1 C         142.1132  142.0138  169.0871 C.2     1  UNL1        0.0553
      2 C         140.6192  141.9322  168.9811 C.2     1  UNL1        0.0002
      3 C         139.9874  140.9988  167.9913 C.2     1  UNL1        0.0084
      4 C         140.8496  140.1471  167.1076 C.2     1  UNL1        0.1023
      5 C         140.5145  139.1416  166.0461 C.2     1  UNL1        0.3531
      6 N         141.8014  138.6019  165.4960 N.2     1  UNL1        0.0802
      7 N         142.9319  139.2737  166.2175 N.2     1  UNL1       -0.0381
      8 C         142.3436  140.2287  167.2135 C.2     1  UNL1        0.1168
      9 C         142.9754  141.1621  168.2033 C.3     1  UNL1        0.0802
     10 F         143.3768  143.8806  171.0666 F       1  UNL1       -0.1662
     11 C         142.7450  142.9472  170.0768 C.3     1  UNL1        0.4153
     12 F         141.5024  143.7874  170.0777 F       1  UNL1       -0.1662
     13 F         143.9876  142.1070  170.0760 F       1  UNL1       -0.1662
     14 N         139.1347  138.7455  165.6110 N.pl3   1  UNL1       -0.1958
     15 H         138.5268  138.3020  166.2458 H       1  UNL1        0.2986
     16 C         138.6812  139.0251  164.2089 C.ar    1  UNL1        0.1551
     17 C         138.7812  137.9565  163.1611 C.ar    1  UNL1        0.0442
     18 C         138.3276  138.2361  161.7589 C.ar    1  UNL1        0.0343
     19 C         137.7741  139.5844  161.4045 C.ar    1  UNL1        0.1386
     20 CL        137.3206  139.8640  160.0023 Cl      1  UNL1       -0.0613
     21 N         137.6741  140.6531  162.4523 N.ar    1  UNL1       -0.2289
     22 C         138.1276  140.3735  163.8545 C.ar    1  UNL1        0.1398
@<TRIPOS>BOND
     1    10    11    1
     2    11    12    1
     3    11    13    1
     4    11     1    1
     5     1     2    2
     6     2     3    1
     7     3     4    2
     8     4     5    1
     9     5    14    1
    10    14    16    1
    11    16    17   ar
    12    17    18   ar
    13    18    19   ar
    14    19    20    1
    15    19    21   ar
    16    21    22   ar
    17     5     6    2
    18     6     7    1
    19     7     8    2
    20     8     9    1
    21     9     1    1
    22     8     4    1
    23    22    16   ar
    24    14    15    1
@<TRIPOS>MOLECULE
*****
 22 24 0 0 0
SMALL
GASTEIGER

@<TRIPOS>ATOM
      1 C         142.7032  140.7368  168.4547 C.2     1  UNL1        0.0553
      2 C         142.9965  142.1068  167.9191 C.2     1  UNL1        0.0002
      3 C         143.2829  142.2956  166.4588 C.2     1  UNL1        0.0084
      4 C         143.2760  141.1145  165.5343 C.2     1  UNL1        0.1023
      5 C         143.5201  140.9930  164.0593 C.2     1  UNL1        0.3531
      6 N         143.3777  139.5479  163.6833 N.2     1  UNL1        0.0802
      7 N         143.0455  138.7762  164.9260 N.2     1  UNL1       -0.0381
      8 C         142.9827  139.7445  166.0699 C.2     1  UNL1        0.1168
      9 C         142.6962  139.5556  167.5302 C.3     1  UNL1        0.0802
     10 F         142.1303  140.3590  171.3752 F       1  UNL1       -0.1662
     11 C         142.4167  140.5479  169.9150 C.3     1  UNL1        0.4153
     12 F         141.0990  139.9170  169.5749 F       1  UNL1       -0.1662
     13 F         143.7344  141.1788  170.2550 F       1  UNL1       -0.1662
     14 N         143.8490  142.1190  163.1244 N.pl3   1  UNL1       -0.1958
     15 H         144.7408  142.1706  162.7105 H       1  UNL1        0.2986
     16 C         142.8191  143.1663  162.8201 C.ar    1  UNL1        0.1551
     17 C         142.7412  144.4075  163.6587 C.ar    1  UNL1        0.0442
     18 C         141.7114  145.4548  163.3544 C.ar    1  UNL1        0.0343
     19 C         140.7595  145.2609  162.2115 C.ar    1  UNL1        0.1386
     20 CL        139.7296  146.3082  161.9073 Cl      1  UNL1       -0.0613
     21 N         140.8374  144.0197  161.3729 N.ar    1  UNL1       -0.2289
     22 C         141.8672  142.9723  161.6772 C.ar    1  UNL1        0.1398
@<TRIPOS>BOND
     1    10    11    1
     2    11    12    1
     3    11    13    1
     4    11     1    1
     5     1     2    2
     6     2     3    1
     7     3     4    2
     8     4     5    1
     9     5    14    1
    10    14    16    1
    11    16    17   ar
    12    17    18   ar
    13    18    19   ar
    14    19    20    1
    15    19    21   ar
    16    21    22   ar
    17     5     6    2
    18     6     7    1
    19     7     8    2
    20     8     9    1
    21     9     1    1
    22     8     4    1
    23    22    16   ar
    24    14    15    1
