@<TRIPOS>MOLECULE
*****
 37 40 0 0 0
SMALL
GASTEIGER

@<TRIPOS>ATOM
      1 C         141.4837  144.2325  161.1768 C.ar    1  UNL1        0.1377
      2 C         140.0715  144.6659  160.9166 C.ar    1  UNL1        0.1397
      3 N         139.4936  144.5506  159.5372 N.ar    1  UNL1       -0.2027
      4 C         140.3280  144.0019  158.4180 C.ar    1  UNL1        0.2367
      5 N         141.7402  143.5684  158.6781 N.ar    1  UNL1       -0.1828
      6 C         142.3181  143.6838  160.0576 C.ar    1  UNL1        0.2337
      7 C         143.8394  145.3306  164.1760 C.3     1  UNL1        0.1109
      8 N         143.2616  145.2153  162.7966 N.am    1  UNL1       -0.2990
      9 C         142.0616  144.3478  162.5562 C.2     1  UNL1        0.2532
     10 O         141.4395  143.5957  163.6952 O.2     1  UNL1       -0.2699
     11 H         143.6699  145.7089  162.0490 H       1  UNL1        0.1498
     12 N         139.2371  145.2147  162.0358 N.pl3   1  UNL1       -0.3178
     13 H         139.4845  146.0669  162.4621 H       1  UNL1        0.1482
     14 C         138.0258  144.4650  162.5055 C.3     1  UNL1        0.0881
     15 C         138.1677  143.0719  163.0431 C.3     1  UNL1        0.0196
     16 C         138.2527  141.9089  162.0996 C.3     1  UNL1        0.0017
     17 C         138.3947  140.5158  162.6372 C.3     1  UNL1        0.0001
     18 C         138.4516  140.2856  164.1183 C.3     1  UNL1        0.0000
     19 C         138.5634  138.9196  163.5085 C.3     1  UNL1        0.0000
     20 C         138.6523  138.3153  164.8785 C.3     1  UNL1        0.0000
     21 C         138.5404  139.6812  165.4883 C.3     1  UNL1        0.0000
     22 C         138.3665  141.4485  165.0618 C.3     1  UNL1        0.0001
     23 C         138.2246  142.8416  164.5242 C.3     1  UNL1        0.0017
     24 C         139.7502  143.8866  157.0386 C.1     1  UNL1        0.1401
     25 N         139.1722  143.7712  155.6592 N.1     1  UNL1       -0.1876
     26 O         143.7303  143.2503  160.3177 O.3     1  UNL1       -0.4637
     27 C         143.9991  141.9583  161.0308 C.3     1  UNL1        0.1701
     28 C         143.6465  140.6543  160.3786 C.3     1  UNL1        0.0580
     29 C         143.9152  139.3623  161.0916 C.3     1  UNL1        0.0454
     30 C         143.9754  137.8883  161.3633 C.3     1  UNL1        0.0159
     31 C         143.3149  138.8384  159.8207 C.3     1  UNL1        0.0159
     32 N         144.5365  139.3742  162.4569 N.3     1  UNL1       -0.3014
     33 C         144.8890  140.6782  163.1091 C.3     1  UNL1        0.0454
     34 C         145.3961  141.6508  164.1323 C.3     1  UNL1        0.0159
     35 C         145.3339  139.7240  164.1775 C.3     1  UNL1        0.0159
     36 C         144.6203  141.9702  162.3960 C.3     1  UNL1        0.0580
     37 H         145.3996  138.8345  162.3924 H       1  UNL1        0.1231
@<TRIPOS>BOND
     1     7     8    1
     2     8     9   am
     3     9    10    2
     4     9     1    1
     5     1     2   ar
     6     2    12    1
     7    12    14    1
     8    14    15    1
     9    15    16    1
    10    16    17    1
    11    17    18    1
    12    18    19    1
    13    19    20    1
    14    20    21    1
    15    18    22    1
    16    22    23    1
    17     2     3   ar
    18     3     4   ar
    19     4    24    1
    20    24    25    3
    21     4     5   ar
    22     5     6   ar
    23     6    26    1
    24    26    27    1
    25    27    28    1
    26    28    29    1
    27    29    30    1
    28    29    31    1
    29    29    32    1
    30    32    33    1
    31    33    34    1
    32    33    35    1
    33    33    36    1
    34     6     1   ar
    35    36    27    1
    36    23    15    1
    37    21    18    1
    38     8    11    1
    39    12    13    1
    40    32    37    1
@<TRIPOS>MOLECULE
*****
 37 40 0 0 0
SMALL
GASTEIGER

@<TRIPOS>ATOM
      1 C         141.4699  144.2322  161.1729 C.ar    1  UNL1        0.1377
      2 C         140.0546  144.6578  160.9161 C.ar    1  UNL1        0.1397
      3 N         139.4746  144.5407  159.5377 N.ar    1  UNL1       -0.2027
      4 C         140.3099  143.9980  158.4162 C.ar    1  UNL1        0.2367
      5 N         141.7251  143.5724  158.6730 N.ar    1  UNL1       -0.1828
      6 C         142.3052  143.6895  160.0514 C.ar    1  UNL1        0.2337
      7 C         143.8254  145.3405  164.1685 C.3     1  UNL1        0.1109
      8 N         143.2454  145.2234  162.7902 N.am    1  UNL1       -0.2990
      9 C         142.0499  144.3493  162.5513 C.2     1  UNL1        0.2532
     10 O         141.4345  143.5925  163.6907 O.2     1  UNL1       -0.2699
     11 H         143.6493  145.7201  162.0423 H       1  UNL1        0.1498
     12 N         139.2194  145.2005  162.0376 N.pl3   1  UNL1       -0.3178
     13 H         139.4652  146.0515  162.4673 H       1  UNL1        0.1482
     14 C         138.0096  144.4466  162.5046 C.3     1  UNL1        0.0881
     15 C         138.1548  143.0528  163.0394 C.3     1  UNL1        0.0196
     16 C         138.2247  142.8210  164.5197 C.3     1  UNL1        0.0017
     17 C         138.3698  141.4271  165.0546 C.3     1  UNL1        0.0001
     18 C         138.4450  140.2650  164.1092 C.3     1  UNL1        0.0000
     19 C         138.5455  139.6592  165.4778 C.3     1  UNL1        0.0000
     20 C         138.6503  138.2937  164.8656 C.3     1  UNL1        0.0000
     21 C         138.5498  138.8996  163.4970 C.3     1  UNL1        0.0000
     22 C         138.3751  140.4968  162.6289 C.3     1  UNL1        0.0001
     23 C         138.2300  141.8907  162.0940 C.3     1  UNL1        0.0017
     24 C         139.7299  143.8809  157.0379 C.1     1  UNL1        0.1401
     25 N         139.1499  143.7639  155.6594 N.1     1  UNL1       -0.1876
     26 O         143.7204  143.2640  160.3081 O.3     1  UNL1       -0.4637
     27 C         143.9979  141.9748  161.0231 C.3     1  UNL1        0.1701
     28 C         144.6186  141.9931  162.3886 C.3     1  UNL1        0.0580
     29 C         144.8961  140.7040  163.1036 C.3     1  UNL1        0.0454
     30 C         145.3472  139.7544  164.1734 C.3     1  UNL1        0.0159
     31 C         145.3958  141.6815  164.1256 C.3     1  UNL1        0.0159
     32 N         144.5530  139.3966  162.4530 N.3     1  UNL1       -0.3014
     33 C         143.9324  139.3784  161.0876 C.3     1  UNL1        0.0454
     34 C         143.3363  138.8486  159.8172 C.3     1  UNL1        0.0159
     35 C         144.0029  137.9053  161.3612 C.3     1  UNL1        0.0159
     36 C         143.6549  140.6675  160.3726 C.3     1  UNL1        0.0580
     37 H         143.9041  138.9182  163.0778 H       1  UNL1        0.1231
@<TRIPOS>BOND
     1     7     8    1
     2     8     9   am
     3     9    10    2
     4     9     1    1
     5     1     2   ar
     6     2    12    1
     7    12    14    1
     8    14    15    1
     9    15    16    1
    10    16    17    1
    11    17    18    1
    12    18    19    1
    13    19    20    1
    14    20    21    1
    15    18    22    1
    16    22    23    1
    17     2     3   ar
    18     3     4   ar
    19     4    24    1
    20    24    25    3
    21     4     5   ar
    22     5     6   ar
    23     6    26    1
    24    26    27    1
    25    27    28    1
    26    28    29    1
    27    29    30    1
    28    29    31    1
    29    29    32    1
    30    32    33    1
    31    33    34    1
    32    33    35    1
    33    33    36    1
    34     6     1   ar
    35    36    27    1
    36    23    15    1
    37    21    18    1
    38     8    11    1
    39    12    13    1
    40    32    37    1
@<TRIPOS>MOLECULE
*****
 37 40 0 0 0
SMALL
GASTEIGER

@<TRIPOS>ATOM
      1 C         139.8208  144.4847  163.4292 C.ar    1  UNL1        0.1377
      2 C         140.9247  145.3411  162.8833 C.ar    1  UNL1        0.1397
      3 N         141.0457  145.5557  161.4037 N.ar    1  UNL1       -0.2027
      4 C         140.0628  144.9138  160.4699 C.ar    1  UNL1        0.2367
      5 N         138.9589  144.0575  161.0158 N.ar    1  UNL1       -0.1828
      6 C         138.8379  143.8429  162.4955 C.ar    1  UNL1        0.2337
      7 C         140.3800  142.9787  167.0582 C.3     1  UNL1        0.1109
      8 N         140.5010  143.1933  165.5786 N.am    1  UNL1       -0.2990
      9 C         139.6998  144.2702  164.9088 C.2     1  UNL1        0.2532
     10 O         138.7777  145.1326  165.7188 O.2     1  UNL1       -0.2699
     11 H         141.1062  142.6273  165.0470 H       1  UNL1        0.1498
     12 N         141.9077  145.9830  163.8171 N.pl3   1  UNL1       -0.3178
     13 H         141.6230  146.7262  164.3966 H       1  UNL1        0.1482
     14 C         143.3243  145.4925  163.8679 C.3     1  UNL1        0.0881
     15 C         143.6122  144.0224  163.7907 C.3     1  UNL1        0.0196
     16 C         143.7771  143.3595  162.4552 C.3     1  UNL1        0.0017
     17 C         144.0650  141.8895  162.3780 C.3     1  UNL1        0.0001
     18 C         144.1880  141.0822  163.6362 C.3     1  UNL1        0.0000
     19 C         144.4087  140.1016  162.5227 C.3     1  UNL1        0.0000
     20 C         144.5951  139.0031  163.5271 C.3     1  UNL1        0.0000
     21 C         144.3744  139.9837  164.6406 C.3     1  UNL1        0.0000
     22 C         144.0230  141.7450  164.9717 C.3     1  UNL1        0.0001
     23 C         143.7351  143.2151  165.0489 C.3     1  UNL1        0.0017
     24 C         140.1838  145.1284  158.9903 C.1     1  UNL1        0.1401
     25 N         140.3047  145.3429  157.5106 N.1     1  UNL1       -0.1876
     26 O         137.7340  142.9865  163.0413 O.3     1  UNL1       -0.4637
     27 C         137.9367  141.5081  163.1929 C.3     1  UNL1        0.1701
     28 C         137.8795  140.6158  161.9884 C.3     1  UNL1        0.0580
     29 C         138.0823  139.1374  162.1399 C.3     1  UNL1        0.0454
     30 C         138.2102  137.6877  161.7767 C.3     1  UNL1        0.0159
     31 C         137.8667  139.2202  160.6578 C.3     1  UNL1        0.0159
     32 N         138.3422  138.5511  163.4959 N.3     1  UNL1       -0.3014
     33 C         138.3995  139.4433  164.7003 C.3     1  UNL1        0.0454
     34 C         138.5446  139.8740  166.1298 C.3     1  UNL1        0.0159
     35 C         138.6526  138.1144  165.3484 C.3     1  UNL1        0.0159
     36 C         138.1967  140.9218  164.5488 C.3     1  UNL1        0.0580
     37 H         139.2407  138.0713  163.4420 H       1  UNL1        0.1231
@<TRIPOS>BOND
     1     7     8    1
     2     8     9   am
     3     9    10    2
     4     9     1    1
     5     1     2   ar
     6     2    12    1
     7    12    14    1
     8    14    15    1
     9    15    16    1
    10    16    17    1
    11    17    18    1
    12    18    19    1
    13    19    20    1
    14    20    21    1
    15    18    22    1
    16    22    23    1
    17     2     3   ar
    18     3     4   ar
    19     4    24    1
    20    24    25    3
    21     4     5   ar
    22     5     6   ar
    23     6    26    1
    24    26    27    1
    25    27    28    1
    26    28    29    1
    27    29    30    1
    28    29    31    1
    29    29    32    1
    30    32    33    1
    31    33    34    1
    32    33    35    1
    33    33    36    1
    34     6     1   ar
    35    36    27    1
    36    23    15    1
    37    21    18    1
    38     8    11    1
    39    12    13    1
    40    32    37    1
@<TRIPOS>MOLECULE
*****
 37 40 0 0 0
SMALL
GASTEIGER

@<TRIPOS>ATOM
      1 C         143.4684  142.3323  163.0482 C.ar    1  UNL1        0.1377
      2 C         142.9443  142.3746  161.6433 C.ar    1  UNL1        0.1397
      3 N         141.9107  143.3912  161.2587 N.ar    1  UNL1       -0.2027
      4 C         141.4010  144.3656  162.2789 C.ar    1  UNL1        0.2367
      5 N         141.9250  144.3233  163.6837 N.ar    1  UNL1       -0.1828
      6 C         142.9587  143.3066  164.0684 C.ar    1  UNL1        0.2337
      7 C         145.2010  139.2293  164.8144 C.3     1  UNL1        0.1109
      8 N         144.1674  140.2459  164.4298 N.am    1  UNL1       -0.2990
      9 C         144.5020  141.3156  163.4328 C.2     1  UNL1        0.2532
     10 O         145.8703  141.3685  162.8204 O.2     1  UNL1       -0.2699
     11 H         143.2693  140.2112  164.8317 H       1  UNL1        0.1498
     12 N         143.4540  141.4002  160.6230 N.pl3   1  UNL1       -0.3178
     13 H         144.2972  141.5809  160.1480 H       1  UNL1        0.1482
     14 C         142.6790  140.1507  160.3265 C.3     1  UNL1        0.0881
     15 C         141.8384  139.5180  161.3957 C.3     1  UNL1        0.0196
     16 C         142.4284  138.4692  162.2911 C.3     1  UNL1        0.0017
     17 C         141.5878  137.8365  163.3602 C.3     1  UNL1        0.0001
     18 C         140.1572  138.2527  163.5340 C.3     1  UNL1        0.0000
     19 C         140.3877  137.2071  164.5847 C.3     1  UNL1        0.0000
     20 C         138.9684  137.3579  165.0461 C.3     1  UNL1        0.0000
     21 C         138.7379  138.4034  163.9954 C.3     1  UNL1        0.0000
     22 C         139.5672  139.3015  162.6386 C.3     1  UNL1        0.0001
     23 C         140.4078  139.9342  161.5695 C.3     1  UNL1        0.0017
     24 C         140.3674  145.3822  161.8943 C.1     1  UNL1        0.1401
     25 N         139.3336  146.3989  161.5097 N.1     1  UNL1       -0.1876
     26 O         143.4827  143.2643  165.4732 O.3     1  UNL1       -0.4637
     27 C         142.7334  142.5092  166.5308 C.3     1  UNL1        0.1701
     28 C         141.4279  141.8494  166.1985 C.3     1  UNL1        0.0580
     29 C         140.6786  141.0943  167.2560 C.3     1  UNL1        0.0454
     30 C         139.6069  140.2733  167.9097 C.3     1  UNL1        0.0159
     31 C         139.7502  140.9044  166.0932 C.3     1  UNL1        0.0159
     32 N         141.2348  140.9991  168.6459 N.3     1  UNL1       -0.3014
     33 C         142.5402  141.6589  168.9781 C.3     1  UNL1        0.0454
     34 C         143.7288  142.1111  169.7736 C.3     1  UNL1        0.0159
     35 C         142.2037  141.0609  170.3120 C.3     1  UNL1        0.0159
     36 C         143.2895  142.4140  167.9206 C.3     1  UNL1        0.0580
     37 H         141.3461  140.0062  168.8511 H       1  UNL1        0.1231
@<TRIPOS>BOND
     1     7     8    1
     2     8     9   am
     3     9    10    2
     4     9     1    1
     5     1     2   ar
     6     2    12    1
     7    12    14    1
     8    14    15    1
     9    15    16    1
    10    16    17    1
    11    17    18    1
    12    18    19    1
    13    19    20    1
    14    20    21    1
    15    18    22    1
    16    22    23    1
    17     2     3   ar
    18     3     4   ar
    19     4    24    1
    20    24    25    3
    21     4     5   ar
    22     5     6   ar
    23     6    26    1
    24    26    27    1
    25    27    28    1
    26    28    29    1
    27    29    30    1
    28    29    31    1
    29    29    32    1
    30    32    33    1
    31    33    34    1
    32    33    35    1
    33    33    36    1
    34     6     1   ar
    35    36    27    1
    36    23    15    1
    37    21    18    1
    38     8    11    1
    39    12    13    1
    40    32    37    1
@<TRIPOS>MOLECULE
*****
 37 40 0 0 0
SMALL
GASTEIGER

@<TRIPOS>ATOM
      1 C         138.2043  141.4439  160.9554 C.ar    1  UNL1        0.1377
      2 C         137.6205  140.1841  160.3877 C.ar    1  UNL1        0.1397
      3 N         137.5897  139.9746  158.9027 N.ar    1  UNL1       -0.2027
      4 C         138.1426  141.0248  157.9855 C.ar    1  UNL1        0.2367
      5 N         138.7263  142.2845  158.5531 N.ar    1  UNL1       -0.1828
      6 C         138.7572  142.4941  160.0382 C.ar    1  UNL1        0.2337
      7 C         139.5753  141.8542  164.6570 C.3     1  UNL1        0.1109
      8 N         139.5445  141.6446  163.1721 N.am    1  UNL1       -0.2990
      9 C         138.2350  141.6534  162.4404 C.2     1  UNL1        0.2532
     10 O         136.9564  141.8717  163.1937 O.2     1  UNL1       -0.2699
     11 H         140.3837  141.5014  162.6777 H       1  UNL1        0.1498
     12 N         137.0676  139.1339  161.3049 N.pl3   1  UNL1       -0.3178
     13 H         136.1600  139.2308  161.6738 H       1  UNL1        0.1482
     14 C         137.8976  137.9360  161.6602 C.3     1  UNL1        0.0881
     15 C         139.1506  138.1044  162.4673 C.3     1  UNL1        0.0196
     16 C         140.4638  138.3245  161.7766 C.3     1  UNL1        0.0017
     17 C         141.7168  138.4928  162.5838 C.3     1  UNL1        0.0001
     18 C         141.6567  138.4411  164.0816 C.3     1  UNL1        0.0000
     19 C         143.1035  138.6711  163.7589 C.3     1  UNL1        0.0000
     20 C         143.4289  138.6792  165.2232 C.3     1  UNL1        0.0000
     21 C         141.9821  138.4492  165.5460 C.3     1  UNL1        0.0000
     22 C         140.3436  138.2210  164.7724 C.3     1  UNL1        0.0001
     23 C         139.0905  138.0527  163.9652 C.3     1  UNL1        0.0017
     24 C         138.1119  140.8153  156.5005 C.1     1  UNL1        0.1401
     25 N         138.0811  140.6058  155.0155 N.1     1  UNL1       -0.1876
     26 O         139.3408  143.7538  160.6059 O.3     1  UNL1       -0.4637
     27 C         140.7789  143.7889  161.0312 C.3     1  UNL1        0.1701
     28 C         141.8113  143.0333  160.2480 C.3     1  UNL1        0.0580
     29 C         143.2493  143.0684  160.6734 C.3     1  UNL1        0.0454
     30 C         144.7243  142.7961  160.6798 C.3     1  UNL1        0.0159
     31 C         143.3559  142.1832  159.4671 C.3     1  UNL1        0.0159
     32 N         143.6549  143.8591  161.8819 N.3     1  UNL1       -0.3014
     33 C         142.6225  144.6146  162.6650 C.3     1  UNL1        0.0454
     34 C         142.0163  145.4876  163.7235 C.3     1  UNL1        0.0159
     35 C         143.8499  144.9529  163.4580 C.3     1  UNL1        0.0159
     36 C         141.1845  144.5795  162.2397 C.3     1  UNL1        0.0580
     37 H         144.3450  144.5419  161.5691 H       1  UNL1        0.1231
@<TRIPOS>BOND
     1     7     8    1
     2     8     9   am
     3     9    10    2
     4     9     1    1
     5     1     2   ar
     6     2    12    1
     7    12    14    1
     8    14    15    1
     9    15    16    1
    10    16    17    1
    11    17    18    1
    12    18    19    1
    13    19    20    1
    14    20    21    1
    15    18    22    1
    16    22    23    1
    17     2     3   ar
    18     3     4   ar
    19     4    24    1
    20    24    25    3
    21     4     5   ar
    22     5     6   ar
    23     6    26    1
    24    26    27    1
    25    27    28    1
    26    28    29    1
    27    29    30    1
    28    29    31    1
    29    29    32    1
    30    32    33    1
    31    33    34    1
    32    33    35    1
    33    33    36    1
    34     6     1   ar
    35    36    27    1
    36    23    15    1
    37    21    18    1
    38     8    11    1
    39    12    13    1
    40    32    37    1
@<TRIPOS>MOLECULE
*****
 37 40 0 0 0
SMALL
GASTEIGER

@<TRIPOS>ATOM
      1 C         138.2047  141.4457  160.9518 C.ar    1  UNL1        0.1377
      2 C         137.6203  140.1854  160.3859 C.ar    1  UNL1        0.1397
      3 N         137.5889  139.9739  158.9012 N.ar    1  UNL1       -0.2027
      4 C         138.1418  141.0228  157.9824 C.ar    1  UNL1        0.2367
      5 N         138.7262  142.2830  158.5482 N.ar    1  UNL1       -0.1828
      6 C         138.7577  142.4945  160.0330 C.ar    1  UNL1        0.2337
      7 C         139.5769  141.8553  164.6530 C.3     1  UNL1        0.1109
      8 N         139.5455  141.6439  163.1684 N.am    1  UNL1       -0.2990
      9 C         138.2362  141.6571  162.4365 C.2     1  UNL1        0.2532
     10 O         136.9583  141.8816  163.1893 O.2     1  UNL1       -0.2699
     11 H         140.3841  141.4965  162.6743 H       1  UNL1        0.1498
     12 N         137.0674  139.1365  161.3047 N.pl3   1  UNL1       -0.3178
     13 H         136.1603  139.2347  161.6745 H       1  UNL1        0.1482
     14 C         137.8965  137.9381  161.6600 C.3     1  UNL1        0.0881
     15 C         139.1499  138.1057  162.4668 C.3     1  UNL1        0.0196
     16 C         139.0899  138.0566  163.9647 C.3     1  UNL1        0.0017
     17 C         140.3433  138.2242  164.7715 C.3     1  UNL1        0.0001
     18 C         141.6567  138.4410  164.0803 C.3     1  UNL1        0.0000
     19 C         141.9823  138.4509  165.5445 C.3     1  UNL1        0.0000
     20 C         143.4294  138.6780  165.2212 C.3     1  UNL1        0.0000
     21 C         143.1038  138.6681  163.7570 C.3     1  UNL1        0.0000
     22 C         141.7168  138.4901  162.5823 C.3     1  UNL1        0.0001
     23 C         140.4634  138.3225  161.7755 C.3     1  UNL1        0.0017
     24 C         138.1104  140.8114  156.4977 C.1     1  UNL1        0.1401
     25 N         138.0790  140.5999  155.0130 N.1     1  UNL1       -0.1876
     26 O         139.3420  143.7547  160.5988 O.3     1  UNL1       -0.4637
     27 C         140.7797  143.7892  161.0255 C.3     1  UNL1        0.1701
     28 C         141.1842  144.5782  162.2354 C.3     1  UNL1        0.0580
     29 C         142.6219  144.6127  162.6620 C.3     1  UNL1        0.0454
     30 C         143.8487  144.9499  163.4565 C.3     1  UNL1        0.0159
     31 C         142.0148  145.4842  163.7213 C.3     1  UNL1        0.0159
     32 N         143.6550  143.8583  161.8787 N.3     1  UNL1       -0.3014
     33 C         143.2504  143.0693  160.6688 C.3     1  UNL1        0.0454
     34 C         143.3581  142.1858  159.4614 C.3     1  UNL1        0.0159
     35 C         144.7254  142.7970  160.6760 C.3     1  UNL1        0.0159
     36 C         141.8127  143.0348  160.2422 C.3     1  UNL1        0.0580
     37 H         144.0934  143.2021  162.5250 H       1  UNL1        0.1231
@<TRIPOS>BOND
     1     7     8    1
     2     8     9   am
     3     9    10    2
     4     9     1    1
     5     1     2   ar
     6     2    12    1
     7    12    14    1
     8    14    15    1
     9    15    16    1
    10    16    17    1
    11    17    18    1
    12    18    19    1
    13    19    20    1
    14    20    21    1
    15    18    22    1
    16    22    23    1
    17     2     3   ar
    18     3     4   ar
    19     4    24    1
    20    24    25    3
    21     4     5   ar
    22     5     6   ar
    23     6    26    1
    24    26    27    1
    25    27    28    1
    26    28    29    1
    27    29    30    1
    28    29    31    1
    29    29    32    1
    30    32    33    1
    31    33    34    1
    32    33    35    1
    33    33    36    1
    34     6     1   ar
    35    36    27    1
    36    23    15    1
    37    21    18    1
    38     8    11    1
    39    12    13    1
    40    32    37    1
@<TRIPOS>MOLECULE
*****
 37 40 0 0 0
SMALL
GASTEIGER

@<TRIPOS>ATOM
      1 C         140.3563  138.0863  163.3929 C.ar    1  UNL1        0.1377
      2 C         139.6266  138.0011  162.0851 C.ar    1  UNL1        0.1397
      3 N         140.3953  137.9817  160.7972 N.ar    1  UNL1       -0.2027
      4 C         141.8937  138.0476  160.8171 C.ar    1  UNL1        0.2367
      5 N         142.6234  138.1328  162.1248 N.ar    1  UNL1       -0.1828
      6 C         141.8547  138.1522  163.4128 C.ar    1  UNL1        0.2337
      7 C         138.7571  139.3811  166.7865 C.3     1  UNL1        0.1109
      8 N         139.5258  139.3617  165.4986 N.am    1  UNL1       -0.2990
      9 C         139.5876  138.1057  164.6808 C.2     1  UNL1        0.2532
     10 O         138.8806  136.8691  165.1510 O.2     1  UNL1       -0.2699
     11 H         139.9897  140.1733  165.1900 H       1  UNL1        0.1498
     12 N         138.1281  137.9352  162.0653 N.pl3   1  UNL1       -0.3178
     13 H         137.6660  137.1364  162.4081 H       1  UNL1        0.1482
     14 C         137.3339  139.0863  161.5231 C.3     1  UNL1        0.0881
     15 C         137.7387  140.4944  161.8448 C.3     1  UNL1        0.0196
     16 C         138.5418  141.2881  160.8573 C.3     1  UNL1        0.0017
     17 C         138.9465  142.6962  161.1790 C.3     1  UNL1        0.0001
     18 C         138.5483  143.3106  162.4881 C.3     1  UNL1        0.0000
     19 C         139.3250  144.3795  161.7780 C.3     1  UNL1        0.0000
     20 C         139.1207  145.3019  162.9431 C.3     1  UNL1        0.0000
     21 C         138.3440  144.2330  163.6532 C.3     1  UNL1        0.0000
     22 C         137.7452  142.5169  163.4756 C.3     1  UNL1        0.0001
     23 C         137.3404  141.1088  163.1539 C.3     1  UNL1        0.0017
     24 C         142.6624  138.0282  159.5292 C.1     1  UNL1        0.1401
     25 N         143.4312  138.0089  158.2413 N.1     1  UNL1       -0.1876
     26 O         142.5844  138.2375  164.7205 O.3     1  UNL1       -0.4637
     27 C         142.8896  139.5767  165.3232 C.3     1  UNL1        0.1701
     28 C         142.5570  139.8456  166.7610 C.3     1  UNL1        0.0580
     29 C         142.8622  141.1849  167.3636 C.3     1  UNL1        0.0454
     30 C         142.9573  142.2851  168.3787 C.3     1  UNL1        0.0159
     31 C         142.2574  140.4965  168.5512 C.3     1  UNL1        0.0159
     32 N         143.5001  142.2553  166.5285 N.3     1  UNL1       -0.3014
     33 C         143.8327  141.9864  165.0908 C.3     1  UNL1        0.0454
     34 C         144.3315  142.2095  163.6939 C.3     1  UNL1        0.0159
     35 C         144.3112  143.4032  165.2082 C.3     1  UNL1        0.0159
     36 C         143.5275  140.6471  164.4881 C.3     1  UNL1        0.0580
     37 H         144.3736  142.5078  166.9906 H       1  UNL1        0.1231
@<TRIPOS>BOND
     1     7     8    1
     2     8     9   am
     3     9    10    2
     4     9     1    1
     5     1     2   ar
     6     2    12    1
     7    12    14    1
     8    14    15    1
     9    15    16    1
    10    16    17    1
    11    17    18    1
    12    18    19    1
    13    19    20    1
    14    20    21    1
    15    18    22    1
    16    22    23    1
    17     2     3   ar
    18     3     4   ar
    19     4    24    1
    20    24    25    3
    21     4     5   ar
    22     5     6   ar
    23     6    26    1
    24    26    27    1
    25    27    28    1
    26    28    29    1
    27    29    30    1
    28    29    31    1
    29    29    32    1
    30    32    33    1
    31    33    34    1
    32    33    35    1
    33    33    36    1
    34     6     1   ar
    35    36    27    1
    36    23    15    1
    37    21    18    1
    38     8    11    1
    39    12    13    1
    40    32    37    1
@<TRIPOS>MOLECULE
*****
 37 40 0 0 0
SMALL
GASTEIGER

@<TRIPOS>ATOM
      1 C         143.5206  142.4844  162.9159 C.ar    1  UNL1        0.1377
      2 C         143.0251  142.5485  161.5014 C.ar    1  UNL1        0.1397
      3 N         141.9744  143.5485  161.1194 N.ar    1  UNL1       -0.2027
      4 C         141.4190  144.4844  162.1517 C.ar    1  UNL1        0.2367
      5 N         141.9144  144.4203  163.5660 N.ar    1  UNL1       -0.1828
      6 C         142.9652  143.4203  163.9482 C.ar    1  UNL1        0.2337
      7 C         145.2980  139.3915  164.6549 C.3     1  UNL1        0.1109
      8 N         144.2473  140.3915  164.2728 N.am    1  UNL1       -0.2990
      9 C         144.5713  141.4845  163.2979 C.2     1  UNL1        0.2532
     10 O         145.9460  141.5775  162.7051 O.2     1  UNL1       -0.2699
     11 H         143.3450  140.3304  164.6619 H       1  UNL1        0.1498
     12 N         143.5805  141.6127  160.4691 N.pl3   1  UNL1       -0.3178
     13 H         144.4347  141.8198  160.0256 H       1  UNL1        0.1482
     14 C         142.8345  140.3611  160.1126 C.3     1  UNL1        0.0881
     15 C         141.9687  139.6870  161.1353 C.3     1  UNL1        0.0196
     16 C         140.5143  140.0396  161.2365 C.3     1  UNL1        0.0017
     17 C         139.6485  139.3654  162.2592 C.3     1  UNL1        0.0001
     18 C         140.2371  138.3387  163.1807 C.3     1  UNL1        0.0000
     19 C         138.7908  138.4251  163.5690 C.3     1  UNL1        0.0000
     20 C         139.0127  137.3852  164.6271 C.3     1  UNL1        0.0000
     21 C         140.4590  137.2988  164.2388 C.3     1  UNL1        0.0000
     22 C         141.6916  137.9861  163.0795 C.3     1  UNL1        0.0001
     23 C         142.5574  138.6602  162.0568 C.3     1  UNL1        0.0017
     24 C         140.3683  145.4843  161.7696 C.1     1  UNL1        0.1401
     25 N         139.3175  146.4844  161.3876 N.1     1  UNL1       -0.1876
     26 O         143.4605  143.3563  165.3625 O.3     1  UNL1       -0.4637
     27 C         142.7116  142.5525  166.3838 C.3     1  UNL1        0.1701
     28 C         143.2485  142.4249  167.7787 C.3     1  UNL1        0.0580
     29 C         142.4995  141.6212  168.8000 C.3     1  UNL1        0.0454
     30 C         142.1557  140.9742  170.1088 C.3     1  UNL1        0.0159
     31 C         143.6659  142.0727  169.6280 C.3     1  UNL1        0.0159
     32 N         141.2137  140.9450  168.4264 N.3     1  UNL1       -0.3014
     33 C         140.6768  141.0727  167.0317 C.3     1  UNL1        0.0454
     34 C         139.7706  140.9004  165.8489 C.3     1  UNL1        0.0159
     35 C         139.6131  140.2091  167.6421 C.3     1  UNL1        0.0159
     36 C         141.4258  141.8764  166.0104 C.3     1  UNL1        0.0580
     37 H         140.4962  141.3103  169.0527 H       1  UNL1        0.1231
@<TRIPOS>BOND
     1     7     8    1
     2     8     9   am
     3     9    10    2
     4     9     1    1
     5     1     2   ar
     6     2    12    1
     7    12    14    1
     8    14    15    1
     9    15    16    1
    10    16    17    1
    11    17    18    1
    12    18    19    1
    13    19    20    1
    14    20    21    1
    15    18    22    1
    16    22    23    1
    17     2     3   ar
    18     3     4   ar
    19     4    24    1
    20    24    25    3
    21     4     5   ar
    22     5     6   ar
    23     6    26    1
    24    26    27    1
    25    27    28    1
    26    28    29    1
    27    29    30    1
    28    29    31    1
    29    29    32    1
    30    32    33    1
    31    33    34    1
    32    33    35    1
    33    33    36    1
    34     6     1   ar
    35    36    27    1
    36    23    15    1
    37    21    18    1
    38     8    11    1
    39    12    13    1
    40    32    37    1
@<TRIPOS>MOLECULE
*****
 37 40 0 0 0
SMALL
GASTEIGER

@<TRIPOS>ATOM
      1 C         140.3432  138.0841  163.3539 C.ar    1  UNL1        0.1377
      2 C         139.6136  138.0052  162.0456 C.ar    1  UNL1        0.1397
      3 N         140.3823  137.9948  160.7576 N.ar    1  UNL1       -0.2027
      4 C         141.8806  138.0633  160.7778 C.ar    1  UNL1        0.2367
      5 N         142.6102  138.1421  162.0860 N.ar    1  UNL1       -0.1828
      6 C         141.8415  138.1526  163.3741 C.ar    1  UNL1        0.2337
      7 C         138.7224  139.3624  166.7434 C.3     1  UNL1        0.1109
      8 N         139.4911  139.3520  165.4554 N.am    1  UNL1       -0.2990
      9 C         139.5745  138.0945  164.6419 C.2     1  UNL1        0.2532
     10 O         138.8892  136.8474  165.1164 O.2     1  UNL1       -0.2699
     11 H         139.9409  140.1705  165.1440 H       1  UNL1        0.1498
     12 N         138.1153  137.9368  162.0254 N.pl3   1  UNL1       -0.3178
     13 H         137.6545  137.1350  162.3634 H       1  UNL1        0.1482
     14 C         137.3190  139.0898  161.4904 C.3     1  UNL1        0.0881
     15 C         137.7246  140.4967  161.8159 C.3     1  UNL1        0.0196
     16 C         137.3117  141.1138  163.1193 C.3     1  UNL1        0.0017
     17 C         137.7173  142.5207  163.4449 C.3     1  UNL1        0.0001
     18 C         138.5359  143.3106  162.4671 C.3     1  UNL1        0.0000
     19 C         138.3200  144.2349  163.6286 C.3     1  UNL1        0.0000
     20 C         139.1096  145.3003  162.9276 C.3     1  UNL1        0.0000
     21 C         139.3255  144.3760  161.7660 C.3     1  UNL1        0.0000
     22 C         138.9488  142.6935  161.1638 C.3     1  UNL1        0.0001
     23 C         138.5431  141.2866  160.8382 C.3     1  UNL1        0.0017
     24 C         142.6492  138.0529  159.4898 C.1     1  UNL1        0.1401
     25 N         143.4180  138.0425  158.2018 N.1     1  UNL1       -0.1876
     26 O         142.5711  138.2314  164.6823 O.3     1  UNL1       -0.4637
     27 C         142.8934  139.5681  165.2819 C.3     1  UNL1        0.1701
     28 C         143.5643  140.6210  164.4503 C.3     1  UNL1        0.0580
     29 C         143.8867  141.9576  165.0500 C.3     1  UNL1        0.0454
     30 C         144.3909  143.3654  165.1666 C.3     1  UNL1        0.0159
     31 C         144.4103  142.1628  163.6594 C.3     1  UNL1        0.0159
     32 N         143.5381  142.2413  166.4811 N.3     1  UNL1       -0.3014
     33 C         142.8672  141.1884  167.3125 C.3     1  UNL1        0.0454
     34 C         142.2317  140.5190  168.4948 C.3     1  UNL1        0.0159
     35 C         142.9688  142.2925  168.3228 C.3     1  UNL1        0.0159
     36 C         142.5449  139.8518  166.7129 C.3     1  UNL1        0.0580
     37 H         142.9198  143.0525  166.4783 H       1  UNL1        0.1231
@<TRIPOS>BOND
     1     7     8    1
     2     8     9   am
     3     9    10    2
     4     9     1    1
     5     1     2   ar
     6     2    12    1
     7    12    14    1
     8    14    15    1
     9    15    16    1
    10    16    17    1
    11    17    18    1
    12    18    19    1
    13    19    20    1
    14    20    21    1
    15    18    22    1
    16    22    23    1
    17     2     3   ar
    18     3     4   ar
    19     4    24    1
    20    24    25    3
    21     4     5   ar
    22     5     6   ar
    23     6    26    1
    24    26    27    1
    25    27    28    1
    26    28    29    1
    27    29    30    1
    28    29    31    1
    29    29    32    1
    30    32    33    1
    31    33    34    1
    32    33    35    1
    33    33    36    1
    34     6     1   ar
    35    36    27    1
    36    23    15    1
    37    21    18    1
    38     8    11    1
    39    12    13    1
    40    32    37    1
