@<TRIPOS>MOLECULE
*****
 27 29 0 0 0
SMALL
GASTEIGER

@<TRIPOS>ATOM
      1 N         140.0154  138.1898  163.9325 N.3     1  UNL1       -0.2725
      2 C         138.9482  137.5515  164.7713 C.3     1  UNL1        0.0748
      3 C         138.5783  138.1490  166.0965 C.3     1  UNL1        0.0485
      4 C         139.2757  139.3848  166.5829 C.3     1  UNL1        0.1096
      5 O         138.3375  139.1470  167.7288 O.3     1  UNL1       -0.3826
      6 C         140.3429  140.0231  165.7440 C.3     1  UNL1        0.0485
      7 C         140.7127  139.4256  164.4189 C.3     1  UNL1        0.0748
      8 H         137.8044  138.3563  167.5515 H       1  UNL1        0.2107
      9 C         139.6472  140.5380  167.4673 C.ar    1  UNL1        0.0019
     10 C         139.5071  140.4172  168.9558 C.ar    1  UNL1       -0.0012
     11 C         139.8786  141.5704  169.8402 C.ar    1  UNL1        0.0111
     12 C         140.3902  142.8444  169.2359 C.ar    1  UNL1        0.0577
     13 CL        140.7617  143.9977  170.1204 Cl      1  UNL1       -0.0822
     14 C         140.5303  142.9652  167.7474 C.ar    1  UNL1        0.0111
     15 C         140.1588  141.8121  166.8631 C.ar    1  UNL1       -0.0012
     16 C         140.3853  137.5923  162.6072 C.3     1  UNL1        0.0726
     17 C         139.7343  138.0916  161.3515 C.3     1  UNL1        0.0254
     18 C         138.2784  138.4529  161.3540 C.3     1  UNL1        0.0706
     19 O         137.3881  140.0001  159.4663 O.2     1  UNL1       -0.2913
     20 C         137.8412  139.8083  160.8833 C.2     1  UNL1        0.1731
     21 C         137.8572  140.9720  161.8296 C.ar    1  UNL1        0.0348
     22 C         137.5608  140.7596  163.2847 C.ar    1  UNL1        0.0051
     23 C         137.5768  141.9233  164.2310 C.ar    1  UNL1        0.0297
     24 C         137.8891  143.2994  163.7223 C.ar    1  UNL1        0.1401
     25 F         137.9051  144.4631  164.6686 F       1  UNL1       -0.2042
     26 C         138.1855  143.5119  162.2673 C.ar    1  UNL1        0.0297
     27 C         138.1695  142.3481  161.3209 C.ar    1  UNL1        0.0051
@<TRIPOS>BOND
     1    19    20    2
     2    20    18    1
     3    18    17    1
     4    17    16    1
     5    16     1    1
     6     1     2    1
     7     2     3    1
     8     3     4    1
     9     4     5    1
    10     4     9    1
    11     9    10   ar
    12    10    11   ar
    13    11    12   ar
    14    12    13    1
    15    12    14   ar
    16    14    15   ar
    17     4     6    1
    18     6     7    1
    19    20    21    1
    20    21    22   ar
    21    22    23   ar
    22    23    24   ar
    23    24    25    1
    24    24    26   ar
    25    26    27   ar
    26     7     1    1
    27    27    21   ar
    28    15     9   ar
    29     5     8    1
@<TRIPOS>MOLECULE
*****
 27 29 0 0 0
SMALL
GASTEIGER

@<TRIPOS>ATOM
      1 N         143.0820  139.2535  164.5319 N.3     1  UNL1       -0.2725
      2 C         143.7009  138.3493  165.5562 C.3     1  UNL1        0.0748
      3 C         143.4095  138.5560  167.0130 C.3     1  UNL1        0.0485
      4 C         142.4991  139.6669  167.4455 C.3     1  UNL1        0.1096
      5 O         142.8434  139.0773  168.7811 O.3     1  UNL1       -0.3826
      6 C         141.8802  140.5711  166.4212 C.3     1  UNL1        0.0485
      7 C         142.1716  140.3644  164.9644 C.3     1  UNL1        0.0748
      8 H         143.4442  138.3259  168.6577 H       1  UNL1        0.2107
      9 C         141.7084  140.5730  168.3419 C.ar    1  UNL1        0.0019
     10 C         142.2401  141.9308  168.6937 C.ar    1  UNL1       -0.0012
     11 C         141.4492  142.8369  169.5901 C.ar    1  UNL1        0.0111
     12 C         140.1267  142.3852  170.1348 C.ar    1  UNL1        0.0577
     13 CL        139.3358  143.2914  171.0313 Cl      1  UNL1       -0.0822
     14 C         139.5949  141.0274  169.7831 C.ar    1  UNL1        0.0111
     15 C         140.3857  140.1214  168.8867 C.ar    1  UNL1       -0.0012
     16 C         143.3734  139.0468  163.0751 C.3     1  UNL1        0.0726
     17 C         142.3973  138.3024  162.2132 C.3     1  UNL1        0.0254
     18 C         141.2431  139.0285  161.5879 C.3     1  UNL1        0.0706
     19 O         138.9775  138.0606  160.7634 O.2     1  UNL1       -0.2913
     20 C         139.8376  138.5891  161.8728 C.2     1  UNL1        0.1731
     21 C         139.2920  138.6783  163.2672 C.ar    1  UNL1        0.0348
     22 C         139.3083  137.4712  164.1576 C.ar    1  UNL1        0.0051
     23 C         138.7628  137.5604  165.5521 C.ar    1  UNL1        0.0297
     24 C         138.2010  138.8567  166.0561 C.ar    1  UNL1        0.1401
     25 F         137.6555  138.9459  167.4505 F       1  UNL1       -0.2042
     26 C         138.1847  140.0637  165.1658 C.ar    1  UNL1        0.0297
     27 C         138.7302  139.9746  163.7713 C.ar    1  UNL1        0.0051
@<TRIPOS>BOND
     1    19    20    2
     2    20    18    1
     3    18    17    1
     4    17    16    1
     5    16     1    1
     6     1     2    1
     7     2     3    1
     8     3     4    1
     9     4     5    1
    10     4     9    1
    11     9    10   ar
    12    10    11   ar
    13    11    12   ar
    14    12    13    1
    15    12    14   ar
    16    14    15   ar
    17     4     6    1
    18     6     7    1
    19    20    21    1
    20    21    22   ar
    21    22    23   ar
    22    23    24   ar
    23    24    25    1
    24    24    26   ar
    25    26    27   ar
    26     7     1    1
    27    27    21   ar
    28    15     9   ar
    29     5     8    1
@<TRIPOS>MOLECULE
*****
 27 29 0 0 0
SMALL
GASTEIGER

@<TRIPOS>ATOM
      1 N         141.7461  140.0572  162.5467 N.3     1  UNL1       -0.2725
      2 C         141.3084  141.4479  162.1942 C.3     1  UNL1        0.0748
      3 C         141.1754  142.4870  163.2676 C.3     1  UNL1        0.0485
      4 C         141.4800  142.1354  164.6937 C.3     1  UNL1        0.1096
      5 O         141.1026  143.5781  164.8560 O.3     1  UNL1       -0.3826
      6 C         141.9177  140.7447  165.0463 C.3     1  UNL1        0.0485
      7 C         142.0507  139.7056  163.9728 C.3     1  UNL1        0.0748
      8 H         140.8733  143.9516  163.9906 H       1  UNL1        0.2107
      9 C         141.6536  142.2850  166.1761 C.ar    1  UNL1        0.0019
     10 C         143.0110  142.1207  166.7928 C.ar    1  UNL1       -0.0012
     11 C         143.1844  142.2703  168.2752 C.ar    1  UNL1        0.0111
     12 C         142.0004  142.5841  169.1409 C.ar    1  UNL1        0.0577
     13 CL        142.1739  142.7337  170.6234 Cl      1  UNL1       -0.0822
     14 C         140.6429  142.7484  168.5243 C.ar    1  UNL1        0.0111
     15 C         140.4695  142.5989  167.0419 C.ar    1  UNL1       -0.0012
     16 C         141.8792  139.0179  161.4732 C.3     1  UNL1        0.0726
     17 C         140.8048  138.8680  160.4372 C.3     1  UNL1        0.0254
     18 C         139.5237  138.1677  160.7812 C.3     1  UNL1        0.0706
     19 O         137.3150  139.5355  160.7498 O.2     1  UNL1       -0.2913
     20 C         138.4404  138.9026  161.5134 C.2     1  UNL1        0.1731
     21 C         138.4824  139.0048  163.0093 C.ar    1  UNL1        0.0348
     22 C         138.8741  137.8130  163.8318 C.ar    1  UNL1        0.0051
     23 C         138.9161  137.9152  165.3277 C.ar    1  UNL1        0.0297
     24 C         138.5666  139.2091  166.0012 C.ar    1  UNL1        0.1401
     25 F         138.6086  139.3112  167.4971 F       1  UNL1       -0.2042
     26 C         138.1750  140.4008  165.1788 C.ar    1  UNL1        0.0297
     27 C         138.1329  140.2987  163.6829 C.ar    1  UNL1        0.0051
@<TRIPOS>BOND
     1    19    20    2
     2    20    18    1
     3    18    17    1
     4    17    16    1
     5    16     1    1
     6     1     2    1
     7     2     3    1
     8     3     4    1
     9     4     5    1
    10     4     9    1
    11     9    10   ar
    12    10    11   ar
    13    11    12   ar
    14    12    13    1
    15    12    14   ar
    16    14    15   ar
    17     4     6    1
    18     6     7    1
    19    20    21    1
    20    21    22   ar
    21    22    23   ar
    22    23    24   ar
    23    24    25    1
    24    24    26   ar
    25    26    27   ar
    26     7     1    1
    27    27    21   ar
    28    15     9   ar
    29     5     8    1
@<TRIPOS>MOLECULE
*****
 27 29 0 0 0
SMALL
GASTEIGER

@<TRIPOS>ATOM
      1 N         141.9063  142.9295  162.5363 N.3     1  UNL1       -0.2725
      2 C         142.1302  141.7945  161.5814 C.3     1  UNL1        0.0748
      3 C         141.5175  140.4529  161.8544 C.3     1  UNL1        0.0485
      4 C         140.6809  140.2462  163.0822 C.3     1  UNL1        0.1096
      5 O         140.6051  138.8739  162.4813 O.3     1  UNL1       -0.3826
      6 C         140.4570  141.3812  164.0370 C.3     1  UNL1        0.0485
      7 C         141.0698  142.7228  163.7640 C.3     1  UNL1        0.0748
      8 H         141.1148  138.8536  161.6562 H       1  UNL1        0.2107
      9 C         139.8180  139.5629  164.1012 C.ar    1  UNL1        0.0019
     10 C         138.9266  140.3739  164.9944 C.ar    1  UNL1       -0.0012
     11 C         138.0637  139.6904  166.0134 C.ar    1  UNL1        0.0111
     12 C         138.0922  138.1960  166.1392 C.ar    1  UNL1        0.0577
     13 CL        137.2293  137.5126  167.1583 Cl      1  UNL1       -0.0822
     14 C         138.9836  137.3850  165.2460 C.ar    1  UNL1        0.0111
     15 C         139.8464  138.0684  164.2271 C.ar    1  UNL1       -0.0012
     16 C         142.5191  144.2712  162.2633 C.3     1  UNL1        0.0726
     17 C         143.7687  144.6852  162.9823 C.3     1  UNL1        0.0254
     18 C         143.7375  144.9265  164.4625 C.3     1  UNL1        0.0706
     19 O         145.5600  144.5126  166.2671 O.2     1  UNL1       -0.2913
     20 C         144.4593  143.9943  165.3897 C.2     1  UNL1        0.1731
     21 C         144.0805  142.5438  165.4395 C.ar    1  UNL1        0.0348
     22 C         144.6138  141.5935  164.4086 C.ar    1  UNL1        0.0051
     23 C         144.2350  140.1430  164.4584 C.ar    1  UNL1        0.0297
     24 C         143.3229  139.6427  165.5391 C.ar    1  UNL1        0.1401
     25 F         142.9441  138.1922  165.5889 F       1  UNL1       -0.2042
     26 C         142.7896  140.5929  166.5699 C.ar    1  UNL1        0.0297
     27 C         143.1684  142.0435  166.5201 C.ar    1  UNL1        0.0051
@<TRIPOS>BOND
     1    19    20    2
     2    20    18    1
     3    18    17    1
     4    17    16    1
     5    16     1    1
     6     1     2    1
     7     2     3    1
     8     3     4    1
     9     4     5    1
    10     4     9    1
    11     9    10   ar
    12    10    11   ar
    13    11    12   ar
    14    12    13    1
    15    12    14   ar
    16    14    15   ar
    17     4     6    1
    18     6     7    1
    19    20    21    1
    20    21    22   ar
    21    22    23   ar
    22    23    24   ar
    23    24    25    1
    24    24    26   ar
    25    26    27   ar
    26     7     1    1
    27    27    21   ar
    28    15     9   ar
    29     5     8    1
@<TRIPOS>MOLECULE
*****
 27 29 0 0 0
SMALL
GASTEIGER

@<TRIPOS>ATOM
      1 N         139.2249  138.3894  163.8854 N.3     1  UNL1       -0.2725
      2 C         140.6964  138.1445  164.0423 C.3     1  UNL1        0.0748
      3 C         141.4361  138.7395  165.2037 C.3     1  UNL1        0.0485
      4 C         140.7042  139.5794  166.2082 C.3     1  UNL1        0.1096
      5 O         142.0885  139.6326  166.7833 O.3     1  UNL1       -0.3826
      6 C         139.2327  139.8243  166.0512 C.3     1  UNL1        0.0485
      7 C         138.4931  139.2293  164.8898 C.3     1  UNL1        0.0748
      8 H         142.6912  139.1184  166.2236 H       1  UNL1        0.2107
      9 C         140.4532  140.4378  167.4124 C.ar    1  UNL1        0.0019
     10 C         141.1647  141.7500  167.5596 C.ar    1  UNL1       -0.0012
     11 C         140.9136  142.6083  168.7639 C.ar    1  UNL1        0.0111
     12 C         139.9510  142.1543  169.8210 C.ar    1  UNL1        0.0577
     13 CL        139.7000  143.0127  171.0253 Cl      1  UNL1       -0.0822
     14 C         139.2396  140.8420  169.6737 C.ar    1  UNL1        0.0111
     15 C         139.4906  139.9838  168.4695 C.ar    1  UNL1       -0.0012
     16 C         138.4852  137.7944  162.7239 C.3     1  UNL1        0.0726
     17 C         137.9162  138.6865  161.6607 C.3     1  UNL1        0.0254
     18 C         138.8210  139.5895  160.8759 C.3     1  UNL1        0.0706
     19 O         138.2442  141.8261  159.6865 O.2     1  UNL1       -0.2913
     20 C         138.6261  141.0758  160.9279 C.2     1  UNL1        0.1731
     21 C         138.8132  141.8119  162.2214 C.ar    1  UNL1        0.0348
     22 C         137.6265  142.3904  162.9336 C.ar    1  UNL1        0.0051
     23 C         137.8136  143.1265  164.2271 C.ar    1  UNL1        0.0297
     24 C         139.1874  143.2842  164.8084 C.ar    1  UNL1        0.1401
     25 F         139.3744  144.0203  166.1019 F       1  UNL1       -0.2042
     26 C         140.3740  142.7057  164.0963 C.ar    1  UNL1        0.0297
     27 C         140.1870  141.9696  162.8027 C.ar    1  UNL1        0.0051
@<TRIPOS>BOND
     1    19    20    2
     2    20    18    1
     3    18    17    1
     4    17    16    1
     5    16     1    1
     6     1     2    1
     7     2     3    1
     8     3     4    1
     9     4     5    1
    10     4     9    1
    11     9    10   ar
    12    10    11   ar
    13    11    12   ar
    14    12    13    1
    15    12    14   ar
    16    14    15   ar
    17     4     6    1
    18     6     7    1
    19    20    21    1
    20    21    22   ar
    21    22    23   ar
    22    23    24   ar
    23    24    25    1
    24    24    26   ar
    25    26    27   ar
    26     7     1    1
    27    27    21   ar
    28    15     9   ar
    29     5     8    1
@<TRIPOS>MOLECULE
*****
 27 29 0 0 0
SMALL
GASTEIGER

@<TRIPOS>ATOM
      1 N         138.6496  143.1236  164.0544 N.3     1  UNL1       -0.2725
      2 C         137.9489  141.8177  163.8231 C.3     1  UNL1        0.0748
      3 C         138.2669  140.6327  164.6861 C.3     1  UNL1        0.0485
      4 C         139.2856  140.7537  165.7804 C.3     1  UNL1        0.1096
      5 O         138.8911  139.3165  165.9495 O.3     1  UNL1       -0.3826
      6 C         139.9864  142.0596  166.0118 C.3     1  UNL1        0.0485
      7 C         139.6684  143.2445  165.1488 C.3     1  UNL1        0.0748
      8 H         138.2178  139.0863  165.2903 H       1  UNL1        0.2107
      9 C         140.1673  140.3755  166.9335 C.ar    1  UNL1        0.0019
     10 C         141.5977  139.9948  166.6906 C.ar    1  UNL1       -0.0012
     11 C         142.4793  139.6165  167.8438 C.ar    1  UNL1        0.0111
     12 C         141.9305  139.6190  169.2398 C.ar    1  UNL1        0.0577
     13 CL        142.8122  139.2407  170.3929 Cl      1  UNL1       -0.0822
     14 C         140.5001  139.9997  169.4826 C.ar    1  UNL1        0.0111
     15 C         139.6185  140.3779  168.3295 C.ar    1  UNL1       -0.0012
     16 C         138.3316  144.3086  163.1914 C.3     1  UNL1        0.0726
     17 C         139.3508  145.3925  163.0007 C.3     1  UNL1        0.0254
     18 C         139.9708  145.6102  161.6522 C.3     1  UNL1        0.0706
     19 O         141.8249  145.0590  159.9177 O.2     1  UNL1       -0.2913
     20 C         141.2630  144.9333  161.3028 C.2     1  UNL1        0.1731
     21 C         141.9932  144.1309  162.3385 C.ar    1  UNL1        0.0348
     22 C         142.8355  144.8242  163.3681 C.ar    1  UNL1        0.0051
     23 C         143.5658  144.0217  164.4038 C.ar    1  UNL1        0.0297
     24 C         143.4538  142.5259  164.4100 C.ar    1  UNL1        0.1401
     25 F         144.1841  141.7234  165.4457 F       1  UNL1       -0.2042
     26 C         142.6116  141.8326  163.3805 C.ar    1  UNL1        0.0297
     27 C         141.8813  142.6351  162.3447 C.ar    1  UNL1        0.0051
@<TRIPOS>BOND
     1    19    20    2
     2    20    18    1
     3    18    17    1
     4    17    16    1
     5    16     1    1
     6     1     2    1
     7     2     3    1
     8     3     4    1
     9     4     5    1
    10     4     9    1
    11     9    10   ar
    12    10    11   ar
    13    11    12   ar
    14    12    13    1
    15    12    14   ar
    16    14    15   ar
    17     4     6    1
    18     6     7    1
    19    20    21    1
    20    21    22   ar
    21    22    23   ar
    22    23    24   ar
    23    24    25    1
    24    24    26   ar
    25    26    27   ar
    26     7     1    1
    27    27    21   ar
    28    15     9   ar
    29     5     8    1
@<TRIPOS>MOLECULE
*****
 27 29 0 0 0
SMALL
GASTEIGER

@<TRIPOS>ATOM
      1 N         140.2607  140.3439  162.6265 N.3     1  UNL1       -0.2725
      2 C         139.0286  139.5491  162.9430 C.3     1  UNL1        0.0748
      3 C         138.5214  139.4817  164.3530 C.3     1  UNL1        0.0485
      4 C         139.2463  140.2089  165.4465 C.3     1  UNL1        0.1096
      5 O         138.1315  139.5924  166.2383 O.3     1  UNL1       -0.3826
      6 C         140.4784  141.0037  165.1299 C.3     1  UNL1        0.0485
      7 C         140.9856  141.0712  163.7199 C.3     1  UNL1        0.0748
      8 H         137.5622  139.0755  165.6469 H       1  UNL1        0.2107
      9 C         139.5839  140.7220  166.8149 C.ar    1  UNL1        0.0019
     10 C         139.2769  139.8902  168.0248 C.ar    1  UNL1       -0.0012
     11 C         139.6146  140.4034  169.3933 C.ar    1  UNL1        0.0111
     12 C         140.2593  141.7484  169.5518 C.ar    1  UNL1        0.0577
     13 CL        140.5970  142.2616  170.9203 Cl      1  UNL1       -0.0822
     14 C         140.5664  142.5803  168.3420 C.ar    1  UNL1        0.0111
     15 C         140.2287  142.0671  166.9736 C.ar    1  UNL1       -0.0012
     16 C         140.7680  140.4114  161.2164 C.3     1  UNL1        0.0726
     17 C         141.5263  141.6183  160.7492 C.3     1  UNL1        0.0254
     18 C         140.7867  142.8048  160.2057 C.3     1  UNL1        0.0706
     19 O         138.2229  142.9058  159.7976 O.2     1  UNL1       -0.2913
     20 C         139.4043  143.1165  160.6974 C.2     1  UNL1        0.1731
     21 C         139.2034  143.6389  162.0891 C.ar    1  UNL1        0.0348
     22 C         140.2168  144.5628  162.6970 C.ar    1  UNL1        0.0051
     23 C         140.0159  145.0852  164.0886 C.ar    1  UNL1        0.0297
     24 C         138.8016  144.6838  164.8724 C.ar    1  UNL1        0.1401
     25 F         138.6007  145.2063  166.2640 F       1  UNL1       -0.2042
     26 C         137.7882  143.7600  164.2646 C.ar    1  UNL1        0.0297
     27 C         137.9891  143.2375  162.8729 C.ar    1  UNL1        0.0051
@<TRIPOS>BOND
     1    19    20    2
     2    20    18    1
     3    18    17    1
     4    17    16    1
     5    16     1    1
     6     1     2    1
     7     2     3    1
     8     3     4    1
     9     4     5    1
    10     4     9    1
    11     9    10   ar
    12    10    11   ar
    13    11    12   ar
    14    12    13    1
    15    12    14   ar
    16    14    15   ar
    17     4     6    1
    18     6     7    1
    19    20    21    1
    20    21    22   ar
    21    22    23   ar
    22    23    24   ar
    23    24    25    1
    24    24    26   ar
    25    26    27   ar
    26     7     1    1
    27    27    21   ar
    28    15     9   ar
    29     5     8    1
@<TRIPOS>MOLECULE
*****
 27 29 0 0 0
SMALL
GASTEIGER

@<TRIPOS>ATOM
      1 N         144.4668  141.2823  163.7563 N.3     1  UNL1       -0.2725
      2 C         144.9452  139.8969  164.0752 C.3     1  UNL1        0.0748
      3 C         144.2882  139.1101  165.1702 C.3     1  UNL1        0.0485
      4 C         143.1527  139.7086  165.9464 C.3     1  UNL1        0.1096
      5 O         143.2483  138.3696  166.6155 O.3     1  UNL1       -0.3826
      6 C         142.6742  141.0940  165.6275 C.3     1  UNL1        0.0485
      7 C         143.3312  141.8808  164.5324 C.3     1  UNL1        0.0748
      8 H         143.9617  137.8543  166.2073 H       1  UNL1        0.2107
      9 C         142.0504  139.8420  166.9549 C.ar    1  UNL1        0.0019
     10 C         140.6430  140.0907  166.4995 C.ar    1  UNL1       -0.0012
     11 C         139.5408  140.2241  167.5081 C.ar    1  UNL1        0.0111
     12 C         139.8460  140.1088  168.9722 C.ar    1  UNL1        0.0577
     13 CL        138.7437  140.2423  169.9808 Cl      1  UNL1       -0.0822
     14 C         141.2534  139.8602  169.4277 C.ar    1  UNL1        0.0111
     15 C         142.3556  139.7268  168.4191 C.ar    1  UNL1       -0.0012
     16 C         145.1238  142.0692  162.6612 C.3     1  UNL1        0.0726
     17 C         144.7014  141.8682  161.2360 C.3     1  UNL1        0.0254
     18 C         143.3496  141.2956  160.9280 C.3     1  UNL1        0.0706
     19 O         143.9824  138.9139  160.1054 O.2     1  UNL1       -0.2913
     20 C         143.1386  139.8110  160.9617 C.2     1  UNL1        0.1731
     21 C         142.0838  139.2234  161.8516 C.ar    1  UNL1        0.0348
     22 C         142.2680  137.8507  162.4277 C.ar    1  UNL1        0.0051
     23 C         141.2131  137.2631  163.3177 C.ar    1  UNL1        0.0297
     24 C         139.9741  138.0481  163.6315 C.ar    1  UNL1        0.1401
     25 F         138.9193  137.4605  164.5215 F       1  UNL1       -0.2042
     26 C         139.7899  139.4207  163.0555 C.ar    1  UNL1        0.0297
     27 C         140.8447  140.0084  162.1655 C.ar    1  UNL1        0.0051
@<TRIPOS>BOND
     1    19    20    2
     2    20    18    1
     3    18    17    1
     4    17    16    1
     5    16     1    1
     6     1     2    1
     7     2     3    1
     8     3     4    1
     9     4     5    1
    10     4     9    1
    11     9    10   ar
    12    10    11   ar
    13    11    12   ar
    14    12    13    1
    15    12    14   ar
    16    14    15   ar
    17     4     6    1
    18     6     7    1
    19    20    21    1
    20    21    22   ar
    21    22    23   ar
    22    23    24   ar
    23    24    25    1
    24    24    26   ar
    25    26    27   ar
    26     7     1    1
    27    27    21   ar
    28    15     9   ar
    29     5     8    1
@<TRIPOS>MOLECULE
*****
 27 29 0 0 0
SMALL
GASTEIGER

@<TRIPOS>ATOM
      1 N         138.7353  139.9994  164.4820 N.3     1  UNL1       -0.2725
      2 C         138.1226  139.1202  165.5314 C.3     1  UNL1        0.0748
      3 C         138.5701  139.2325  166.9587 C.3     1  UNL1        0.0485
      4 C         139.6303  140.2241  167.3365 C.3     1  UNL1        0.1096
      5 O         139.3522  139.6159  168.6791 O.3     1  UNL1       -0.3826
      6 C         140.2430  141.1034  166.2870 C.3     1  UNL1        0.0485
      7 C         139.7955  140.9910  164.8597 C.3     1  UNL1        0.0748
      8 H         138.6658  138.9363  168.5903 H       1  UNL1        0.2107
      9 C         140.5938  141.0045  168.1806 C.ar    1  UNL1        0.0019
     10 C         141.9113  140.4008  168.5676 C.ar    1  UNL1       -0.0012
     11 C         142.8749  141.1812  169.4118 C.ar    1  UNL1        0.0111
     12 C         142.5209  142.5653  169.8689 C.ar    1  UNL1        0.0577
     13 CL        143.4845  143.3457  170.7131 Cl      1  UNL1       -0.0822
     14 C         141.2034  143.1690  169.4818 C.ar    1  UNL1        0.0111
     15 C         140.2399  142.3886  168.6377 C.ar    1  UNL1       -0.0012
     16 C         138.2879  139.8870  163.0546 C.3     1  UNL1        0.0726
     17 C         139.2698  140.1035  161.9416 C.3     1  UNL1        0.0254
     18 C         139.8053  138.9305  161.1751 C.3     1  UNL1        0.0706
     19 O         142.0427  138.0816  160.1634 O.2     1  UNL1       -0.2913
     20 C         141.2334  138.5075  161.3524 C.2     1  UNL1        0.1731
     21 C         141.8523  138.5104  162.7187 C.ar    1  UNL1        0.0348
     22 C         141.2926  137.6311  163.7975 C.ar    1  UNL1        0.0051
     23 C         141.9115  137.6340  165.1639 C.ar    1  UNL1        0.0297
     24 C         143.0901  138.5161  165.4515 C.ar    1  UNL1        0.1401
     25 F         143.7090  138.5190  166.8178 F       1  UNL1       -0.2042
     26 C         143.6499  139.3953  164.3728 C.ar    1  UNL1        0.0297
     27 C         143.0310  139.3925  163.0064 C.ar    1  UNL1        0.0051
@<TRIPOS>BOND
     1    19    20    2
     2    20    18    1
     3    18    17    1
     4    17    16    1
     5    16     1    1
     6     1     2    1
     7     2     3    1
     8     3     4    1
     9     4     5    1
    10     4     9    1
    11     9    10   ar
    12    10    11   ar
    13    11    12   ar
    14    12    13    1
    15    12    14   ar
    16    14    15   ar
    17     4     6    1
    18     6     7    1
    19    20    21    1
    20    21    22   ar
    21    22    23   ar
    22    23    24   ar
    23    24    25    1
    24    24    26   ar
    25    26    27   ar
    26     7     1    1
    27    27    21   ar
    28    15     9   ar
    29     5     8    1
