@<TRIPOS>MOLECULE
*****
 14 15 0 0 0
SMALL
GASTEIGER

@<TRIPOS>ATOM
      1 C         138.5924  139.6962  165.7378 C.ar    1  UNL1        0.1385
      2 C         139.6174  140.4118  166.5669 C.ar    1  UNL1        0.0374
      3 C         139.9984  141.8239  166.2340 C.ar    1  UNL1        0.0090
      4 C         139.3544  142.5204  165.0719 C.ar    1  UNL1        0.0228
      5 C         138.3295  141.8048  164.2429 C.ar    1  UNL1        0.0023
      6 C         137.9485  140.3928  164.5758 C.ar    1  UNL1        0.0345
      7 C         137.5717  142.3104  163.0512 C.3     1  UNL1        0.0962
      8 N         137.6518  143.6566  162.3942 N.3     1  UNL1       -0.2930
      9 C         138.5093  144.8295  162.7668 C.3     1  UNL1        0.0810
     10 C         139.4987  144.9461  163.8882 C.3     1  UNL1        0.0792
     11 S         139.8748  143.9184  164.9141 S.3     1  UNL1       -0.1125
     12 H         136.6978  144.0158  162.4306 H       1  UNL1        0.1236
     13 C         137.2898  138.0075  167.2214 C.3     1  UNL1        0.2525
     14 O         138.2114  138.2841  166.0707 O.3     1  UNL1       -0.4714
@<TRIPOS>BOND
     1    13    14    1
     2    14     1    1
     3     1     2   ar
     4     2     3   ar
     5     3     4   ar
     6     4     5   ar
     7     5     6   ar
     8     5     7    1
     9     7     8    1
    10     8     9    1
    11     9    10    1
    12    10    11    1
    13     6     1   ar
    14    11     4    1
    15     8    12    1
@<TRIPOS>MOLECULE
*****
 14 15 0 0 0
SMALL
GASTEIGER

@<TRIPOS>ATOM
      1 C         138.4968  138.9920  166.1516 C.ar    1  UNL1        0.1385
      2 C         138.9281  137.7104  165.5024 C.ar    1  UNL1        0.0374
      3 C         138.9762  137.6064  164.0067 C.ar    1  UNL1        0.0090
      4 C         138.5930  138.7840  163.1603 C.ar    1  UNL1        0.0228
      5 C         138.1617  140.0655  163.8095 C.ar    1  UNL1        0.0023
      6 C         138.1136  140.1696  165.3051 C.ar    1  UNL1        0.0345
      7 C         137.7415  141.3493  163.1571 C.3     1  UNL1        0.0962
      8 N         137.6488  141.6683  161.6943 N.3     1  UNL1       -0.2930
      9 C         137.9534  140.7826  160.5228 C.3     1  UNL1        0.0810
     10 C         138.4260  139.3590  160.5246 C.3     1  UNL1        0.0792
     11 S         138.7106  138.4695  161.6984 S.3     1  UNL1       -0.1125
     12 H         138.2594  142.4758  161.5697 H       1  UNL1        0.1236
     13 C         139.4119  139.9920  168.3680 C.3     1  UNL1        0.2525
     14 O         138.4488  139.0960  167.6472 O.3     1  UNL1       -0.4714
@<TRIPOS>BOND
     1    13    14    1
     2    14     1    1
     3     1     2   ar
     4     2     3   ar
     5     3     4   ar
     6     4     5   ar
     7     5     6   ar
     8     5     7    1
     9     7     8    1
    10     8     9    1
    11     9    10    1
    12    10    11    1
    13     6     1   ar
    14    11     4    1
    15     8    12    1
@<TRIPOS>MOLECULE
*****
 14 15 0 0 0
SMALL
GASTEIGER

@<TRIPOS>ATOM
      1 C         139.5298  139.1659  165.8740 C.ar    1  UNL1        0.1385
      2 C         141.0061  139.1081  165.6147 C.ar    1  UNL1        0.0374
      3 C         141.9728  139.5017  166.6921 C.ar    1  UNL1        0.0090
      4 C         141.4632  139.9531  168.0287 C.ar    1  UNL1        0.0228
      5 C         139.9870  140.0109  168.2879 C.ar    1  UNL1        0.0023
      6 C         139.0202  139.6174  167.2107 C.ar    1  UNL1        0.0345
      7 C         139.2728  140.4284  169.5393 C.3     1  UNL1        0.0962
      8 N         139.8586  140.8912  170.8404 N.3     1  UNL1       -0.2930
      9 C         141.3031  141.0507  171.2114 C.3     1  UNL1        0.0810
     10 C         142.5188  140.7869  170.3731 C.3     1  UNL1        0.0792
     11 S         142.5900  140.2984  168.9566 S.3     1  UNL1       -0.1125
     12 H         139.4871  140.2414  171.5334 H       1  UNL1        0.1236
     13 C         138.9796  137.7981  163.7349 C.3     1  UNL1        0.2525
     14 O         138.5632  138.7724  164.7967 O.3     1  UNL1       -0.4714
@<TRIPOS>BOND
     1    13    14    1
     2    14     1    1
     3     1     2   ar
     4     2     3   ar
     5     3     4   ar
     6     4     5   ar
     7     5     6   ar
     8     5     7    1
     9     7     8    1
    10     8     9    1
    11     9    10    1
    12    10    11    1
    13     6     1   ar
    14    11     4    1
    15     8    12    1
@<TRIPOS>MOLECULE
*****
 14 15 0 0 0
SMALL
GASTEIGER

@<TRIPOS>ATOM
      1 C         138.7392  138.9418  166.1400 C.ar    1  UNL1        0.1385
      2 C         139.7635  139.8680  166.7257 C.ar    1  UNL1        0.0374
      3 C         141.1056  140.0122  166.0714 C.ar    1  UNL1        0.0090
      4 C         141.4234  139.2301  164.8315 C.ar    1  UNL1        0.0228
      5 C         140.3992  138.3040  164.2459 C.ar    1  UNL1        0.0023
      6 C         139.0571  138.1597  164.9001 C.ar    1  UNL1        0.0345
      7 C         140.5099  137.4385  163.0257 C.3     1  UNL1        0.0962
      8 N         141.6722  137.2856  162.0898 N.3     1  UNL1       -0.2930
      9 C         143.0107  137.9603  162.1430 C.3     1  UNL1        0.0810
     10 C         143.5177  138.9546  163.1452 C.3     1  UNL1        0.0792
     11 S         142.8113  139.5198  164.3417 S.3     1  UNL1       -0.1125
     12 H         141.2973  137.5335  161.1742 H       1  UNL1        0.1236
     13 C         137.0211  137.5058  167.4574 C.3     1  UNL1        0.2525
     14 O         137.3972  138.7976  166.7943 O.3     1  UNL1       -0.4714
@<TRIPOS>BOND
     1    13    14    1
     2    14     1    1
     3     1     2   ar
     4     2     3   ar
     5     3     4   ar
     6     4     5   ar
     7     5     6   ar
     8     5     7    1
     9     7     8    1
    10     8     9    1
    11     9    10    1
    12    10    11    1
    13     6     1   ar
    14    11     4    1
    15     8    12    1
@<TRIPOS>MOLECULE
*****
 14 15 0 0 0
SMALL
GASTEIGER

@<TRIPOS>ATOM
      1 C         138.5316  144.1577  162.9760 C.ar    1  UNL1        0.1385
      2 C         137.7534  142.9638  162.5080 C.ar    1  UNL1        0.0374
      3 C         137.7599  141.7003  163.3165 C.ar    1  UNL1        0.0090
      4 C         138.5448  141.6308  164.5930 C.ar    1  UNL1        0.0228
      5 C         139.3229  142.8246  165.0609 C.ar    1  UNL1        0.0023
      6 C         139.3164  144.0881  164.2524 C.ar    1  UNL1        0.0345
      7 C         140.1654  142.9674  166.2938 C.3     1  UNL1        0.0962
      8 N         140.4377  141.9513  167.3632 N.3     1  UNL1       -0.2930
      9 C         139.9348  140.5418  167.4639 C.3     1  UNL1        0.0810
     10 C         139.0354  139.8000  166.5200 C.3     1  UNL1        0.0792
     11 S         138.4167  140.2847  165.2423 S.3     1  UNL1       -0.1125
     12 H         140.1232  142.3970  168.2251 H       1  UNL1        0.1236
     13 C         139.8152  146.1224  161.8615 C.3     1  UNL1        0.2525
     14 O         138.5250  145.4211  162.1675 O.3     1  UNL1       -0.4714
@<TRIPOS>BOND
     1    13    14    1
     2    14     1    1
     3     1     2   ar
     4     2     3   ar
     5     3     4   ar
     6     4     5   ar
     7     5     6   ar
     8     5     7    1
     9     7     8    1
    10     8     9    1
    11     9    10    1
    12    10    11    1
    13     6     1   ar
    14    11     4    1
    15     8    12    1
@<TRIPOS>MOLECULE
*****
 14 15 0 0 0
SMALL
GASTEIGER

@<TRIPOS>ATOM
      1 C         139.8163  140.4626  167.1820 C.ar    1  UNL1        0.1385
      2 C         138.8692  139.6034  166.3978 C.ar    1  UNL1        0.0374
      3 C         138.2044  140.1486  165.1687 C.ar    1  UNL1        0.0090
      4 C         138.4866  141.5531  164.7238 C.ar    1  UNL1        0.0228
      5 C         139.4336  142.4122  165.5080 C.ar    1  UNL1        0.0023
      6 C         140.0984  141.8670  166.7371 C.ar    1  UNL1        0.0345
      7 C         139.8514  143.8280  165.2414 C.3     1  UNL1        0.0962
      8 N         139.4252  144.7343  164.1245 N.3     1  UNL1       -0.2930
      9 C         138.4762  144.4486  162.9987 C.3     1  UNL1        0.0810
     10 C         137.7188  143.1861  162.7115 C.3     1  UNL1        0.0792
     11 S         137.7234  141.8975  163.4792 S.3     1  UNL1       -0.1125
     12 H         140.2959  144.9989  163.6638 H       1  UNL1        0.1236
     13 C         139.9825  140.3100  169.7702 C.3     1  UNL1        0.2525
     14 O         140.4810  139.9173  168.4111 O.3     1  UNL1       -0.4714
@<TRIPOS>BOND
     1    13    14    1
     2    14     1    1
     3     1     2   ar
     4     2     3   ar
     5     3     4   ar
     6     4     5   ar
     7     5     6   ar
     8     5     7    1
     9     7     8    1
    10     8     9    1
    11     9    10    1
    12    10    11    1
    13     6     1   ar
    14    11     4    1
    15     8    12    1
@<TRIPOS>MOLECULE
*****
 14 15 0 0 0
SMALL
GASTEIGER

@<TRIPOS>ATOM
      1 C         138.8369  144.3591  163.2457 C.ar    1  UNL1        0.1385
      2 C         139.4628  144.6794  164.5707 C.ar    1  UNL1        0.0374
      3 C         139.7319  143.5824  165.5578 C.ar    1  UNL1        0.0090
      4 C         139.3749  142.1652  165.2198 C.ar    1  UNL1        0.0228
      5 C         138.7490  141.8450  163.8949 C.ar    1  UNL1        0.0023
      6 C         138.4799  142.9419  162.9078 C.ar    1  UNL1        0.0345
      7 C         138.3190  140.5105  163.3617 C.3     1  UNL1        0.0962
      8 N         138.4088  139.1665  164.0220 N.3     1  UNL1       -0.2930
      9 C         138.9507  138.8253  165.3783 C.3     1  UNL1        0.0810
     10 C         139.5368  139.7436  166.4096 C.3     1  UNL1        0.0792
     11 S         139.7255  141.2300  166.3390 S.3     1  UNL1       -0.1125
     12 H         138.9606  138.6012  163.3768 H       1  UNL1        0.1236
     13 C         139.7049  146.2646  161.7077 C.3     1  UNL1        0.2525
     14 O         138.5679  145.4561  162.2587 O.3     1  UNL1       -0.4714
@<TRIPOS>BOND
     1    13    14    1
     2    14     1    1
     3     1     2   ar
     4     2     3   ar
     5     3     4   ar
     6     4     5   ar
     7     5     6   ar
     8     5     7    1
     9     7     8    1
    10     8     9    1
    11     9    10    1
    12    10    11    1
    13     6     1   ar
    14    11     4    1
    15     8    12    1
@<TRIPOS>MOLECULE
*****
 14 15 0 0 0
SMALL
GASTEIGER

@<TRIPOS>ATOM
      1 C         142.5089  139.5196  167.5600 C.ar    1  UNL1        0.1385
      2 C         143.3995  138.6226  166.7525 C.ar    1  UNL1        0.0374
      3 C         142.9034  138.0354  165.4644 C.ar    1  UNL1        0.0090
      4 C         141.5166  138.3453  164.9839 C.ar    1  UNL1        0.0228
      5 C         140.6260  139.2422  165.7915 C.ar    1  UNL1        0.0023
      6 C         141.1221  139.8294  167.0795 C.ar    1  UNL1        0.0345
      7 C         139.2207  139.6764  165.4967 C.3     1  UNL1        0.0962
      8 N         138.3591  139.3206  164.3215 N.3     1  UNL1       -0.2930
      9 C         138.6898  138.4430  163.1510 C.3     1  UNL1        0.0810
     10 C         139.9639  137.7043  162.8663 C.3     1  UNL1        0.0792
     11 S         141.2220  137.6608  163.6821 S.3     1  UNL1       -0.1125
     12 H         138.1107  140.2183  163.9057 H       1  UNL1        0.1236
     13 C         142.5546  139.5305  170.1576 C.3     1  UNL1        0.2525
     14 O         143.0051  140.1068  168.8480 O.3     1  UNL1       -0.4714
@<TRIPOS>BOND
     1    13    14    1
     2    14     1    1
     3     1     2   ar
     4     2     3   ar
     5     3     4   ar
     6     4     5   ar
     7     5     6   ar
     8     5     7    1
     9     7     8    1
    10     8     9    1
    11     9    10    1
    12    10    11    1
    13     6     1   ar
    14    11     4    1
    15     8    12    1
@<TRIPOS>MOLECULE
*****
 14 15 0 0 0
SMALL
GASTEIGER

@<TRIPOS>ATOM
      1 C         140.5545  140.7122  167.7778 C.ar    1  UNL1        0.1385
      2 C         140.9626  142.1488  167.6374 C.ar    1  UNL1        0.0374
      3 C         140.4191  142.9762  166.5105 C.ar    1  UNL1        0.0090
      4 C         139.4673  142.3670  165.5240 C.ar    1  UNL1        0.0228
      5 C         139.0593  140.9305  165.6644 C.ar    1  UNL1        0.0023
      6 C         139.6028  140.1031  166.7913 C.ar    1  UNL1        0.0345
      7 C         138.1298  140.1333  164.7979 C.3     1  UNL1        0.0962
      8 N         137.3790  140.5759  163.5770 N.3     1  UNL1       -0.2930
      9 C         137.3722  141.9248  162.9212 C.3     1  UNL1        0.0810
     10 C         138.1144  143.1645  163.3241 C.3     1  UNL1        0.0792
     11 S         139.0469  143.3613  164.4825 S.3     1  UNL1       -0.1125
     12 H         136.4001  140.3950  163.7995 H       1  UNL1        0.1236
     13 C         140.4847  139.9820  170.2701 C.3     1  UNL1        0.2525
     14 O         141.0981  139.8849  168.9047 O.3     1  UNL1       -0.4714
@<TRIPOS>BOND
     1    13    14    1
     2    14     1    1
     3     1     2   ar
     4     2     3   ar
     5     3     4   ar
     6     4     5   ar
     7     5     6   ar
     8     5     7    1
     9     7     8    1
    10     8     9    1
    11     9    10    1
    12    10    11    1
    13     6     1   ar
    14    11     4    1
    15     8    12    1
