@<TRIPOS>MOLECULE
*****
 27 30 0 0 0
SMALL
GASTEIGER

@<TRIPOS>ATOM
      1 C         140.1420  139.4337  166.4753 C.ar    1  UNL1        0.1183
      2 C         139.1169  138.6609  165.6996 C.ar    1  UNL1        0.0223
      3 C         139.4584  138.1099  164.3469 C.ar    1  UNL1        0.0031
      4 C         140.8251  138.3317  163.7700 C.ar    1  UNL1        0.0174
      5 C         141.1667  137.7807  162.4173 C.ar    1  UNL1       -0.0027
      6 C         142.5334  138.0025  161.8403 C.ar    1  UNL1       -0.0207
      7 C         143.5586  138.7754  162.6161 C.ar    1  UNL1       -0.0027
      8 C         143.2170  139.3264  163.9687 C.ar    1  UNL1        0.0188
      9 C         141.8503  139.1046  164.5457 C.ar    1  UNL1        0.0813
     10 N         141.5087  139.6556  165.8983 N.ar    1  UNL1       -0.2422
     11 C         139.8075  141.3551  169.8312 C.ar    1  UNL1        0.1983
     12 C         140.4614  141.1537  168.4964 C.ar    1  UNL1        0.0708
     13 C         139.8004  139.9848  167.8280 C.ar    1  UNL1        0.1946
     14 O         138.7380  139.4637  168.7497 O.2     1  UNL1       -0.3516
     15 N         138.7423  140.3105  169.9878 N.ar    1  UNL1       -0.0703
     16 C         140.1573  142.4148  170.8335 C.2     1  UNL1        0.3626
     17 O         139.1186  143.4038  171.2726 O.2     1  UNL1       -0.2431
     18 C         142.6499  143.1074  170.5941 C.3     1  UNL1        0.2560
     19 O         141.5458  142.4855  171.3967 O.3     1  UNL1       -0.4402
     20 C         142.8750  137.4515  160.4877 C.3     1  UNL1        0.0437
     21 C         142.7303  138.3132  159.2684 C.3     1  UNL1        0.0768
     22 N         141.7836  137.9137  158.1757 N.3     1  UNL1       -0.2737
     23 C         142.1361  137.1285  156.9471 C.3     1  UNL1        0.0721
     24 C         140.8885  136.9587  156.1318 C.3     1  UNL1        0.0187
     25 C         139.7650  137.6390  156.8564 C.3     1  UNL1        0.0174
     26 C         140.3183  138.2292  158.1196 C.3     1  UNL1        0.0576
     27 C         139.5423  138.9996  159.1464 C.3     1  UNL1        0.0173
@<TRIPOS>BOND
     1    18    19    1
     2    19    16    1
     3    16    17    2
     4    16    11    1
     5    11    12   ar
     6    12    13   ar
     7    13     1    1
     8     1     2   ar
     9     2     3   ar
    10     3     4   ar
    11     4     5   ar
    12     5     6   ar
    13     6    20    1
    14    20    21    1
    15    21    22    1
    16    22    23    1
    17    23    24    1
    18    24    25    1
    19    25    26    1
    20    26    27    1
    21     6     7   ar
    22     7     8   ar
    23     8     9   ar
    24     9    10   ar
    25    13    14   ar
    26    14    15   ar
    27    15    11   ar
    28    10     1   ar
    29     9     4   ar
    30    26    22    1
@<TRIPOS>MOLECULE
*****
 27 30 0 0 0
SMALL
GASTEIGER

@<TRIPOS>ATOM
      1 C         141.4419  143.6118  163.0575 C.ar    1  UNL1        0.1183
      2 C         142.7558  143.9464  163.6990 C.ar    1  UNL1        0.0223
      3 C         143.2510  143.1367  164.8605 C.ar    1  UNL1        0.0031
      4 C         142.4323  141.9924  165.3805 C.ar    1  UNL1        0.0174
      5 C         142.9275  141.1827  166.5421 C.ar    1  UNL1       -0.0027
      6 C         142.1088  140.0385  167.0620 C.ar    1  UNL1       -0.0207
      7 C         140.7948  139.7039  166.4204 C.ar    1  UNL1       -0.0027
      8 C         140.2996  140.5136  165.2589 C.ar    1  UNL1        0.0188
      9 C         141.1183  141.6579  164.7389 C.ar    1  UNL1        0.0813
     10 N         140.6232  142.4675  163.5774 N.ar    1  UNL1       -0.2422
     11 C         140.7643  145.4301  159.6959 C.ar    1  UNL1        0.1983
     12 C         141.5935  144.5135  160.5456 C.ar    1  UNL1        0.0708
     13 C         140.9466  144.4215  161.8959 C.ar    1  UNL1        0.1946
     14 O         139.7176  145.2813  161.8806 O.2     1  UNL1       -0.3516
     15 N         139.6049  145.9047  160.5210 N.ar    1  UNL1       -0.0703
     16 C         141.0451  145.8062  158.2712 C.2     1  UNL1        0.3626
     17 O         142.4615  145.9342  157.7946 O.2     1  UNL1       -0.2431
     18 C         139.8273  145.2904  156.0349 C.3     1  UNL1        0.2560
     19 O         139.9094  146.0543  157.3232 O.3     1  UNL1       -0.4402
     20 C         142.6040  139.2288  168.2235 C.3     1  UNL1        0.0437
     21 C         142.3359  139.6877  169.6263 C.3     1  UNL1        0.0768
     22 N         141.7141  141.0307  169.8701 N.3     1  UNL1       -0.2737
     23 C         140.2506  141.3047  170.0524 C.3     1  UNL1        0.0721
     24 C         140.0786  142.7789  170.2695 C.3     1  UNL1        0.0187
     25 C         141.4358  143.4160  170.2213 C.3     1  UNL1        0.0174
     26 C         142.4465  142.3356  169.9745 C.3     1  UNL1        0.0576
     27 C         143.9294  142.5265  169.8533 C.3     1  UNL1        0.0173
@<TRIPOS>BOND
     1    18    19    1
     2    19    16    1
     3    16    17    2
     4    16    11    1
     5    11    12   ar
     6    12    13   ar
     7    13     1    1
     8     1     2   ar
     9     2     3   ar
    10     3     4   ar
    11     4     5   ar
    12     5     6   ar
    13     6    20    1
    14    20    21    1
    15    21    22    1
    16    22    23    1
    17    23    24    1
    18    24    25    1
    19    25    26    1
    20    26    27    1
    21     6     7   ar
    22     7     8   ar
    23     8     9   ar
    24     9    10   ar
    25    13    14   ar
    26    14    15   ar
    27    15    11   ar
    28    10     1   ar
    29     9     4   ar
    30    26    22    1
@<TRIPOS>MOLECULE
*****
 27 30 0 0 0
SMALL
GASTEIGER

@<TRIPOS>ATOM
      1 C         138.9559  139.7778  166.4517 C.ar    1  UNL1        0.1183
      2 C         139.0096  138.3888  165.8882 C.ar    1  UNL1        0.0223
      3 C         138.7739  138.1638  164.4241 C.ar    1  UNL1        0.0031
      4 C         138.4846  139.3279  163.5234 C.ar    1  UNL1        0.0174
      5 C         138.2490  139.1029  162.0592 C.ar    1  UNL1       -0.0027
      6 C         137.9597  140.2669  161.1585 C.ar    1  UNL1       -0.0207
      7 C         137.9061  141.6561  161.7221 C.ar    1  UNL1       -0.0027
      8 C         138.1417  141.8810  163.1862 C.ar    1  UNL1        0.0188
      9 C         138.4310  140.7170  164.0869 C.ar    1  UNL1        0.0813
     10 N         138.6666  140.9419  165.5511 N.ar    1  UNL1       -0.2422
     11 C         140.1447  140.7824  170.0075 C.ar    1  UNL1        0.1983
     12 C         140.2855  140.8361  168.5151 C.ar    1  UNL1        0.0708
     13 C         139.1916  140.0029  167.9160 C.ar    1  UNL1        0.1946
     14 O         138.3747  139.4342  169.0381 O.2     1  UNL1       -0.3516
     15 N         138.9637  139.9159  170.3307 N.ar    1  UNL1       -0.0703
     16 C         141.0296  141.4738  171.0020 C.2     1  UNL1        0.3626
     17 O         140.4273  142.1580  172.1933 O.2     1  UNL1       -0.2431
     18 C         143.1694  142.6086  170.0621 C.3     1  UNL1        0.2560
     19 O         142.5166  141.4809  170.8052 O.3     1  UNL1       -0.4402
     20 C         137.7241  140.0420  159.6944 C.3     1  UNL1        0.0437
     21 C         138.8396  140.2531  158.7140 C.3     1  UNL1        0.0768
     22 N         140.2529  139.9406  159.1074 N.3     1  UNL1       -0.2737
     23 C         140.9041  138.5902  159.0571 C.3     1  UNL1        0.0721
     24 C         142.3169  138.7386  159.5388 C.3     1  UNL1        0.0187
     25 C         142.5389  140.1808  159.8867 C.3     1  UNL1        0.0174
     26 C         141.2633  140.9236  159.6201 C.3     1  UNL1        0.0576
     27 C         141.0377  142.3917  159.8294 C.3     1  UNL1        0.0173
@<TRIPOS>BOND
     1    18    19    1
     2    19    16    1
     3    16    17    2
     4    16    11    1
     5    11    12   ar
     6    12    13   ar
     7    13     1    1
     8     1     2   ar
     9     2     3   ar
    10     3     4   ar
    11     4     5   ar
    12     5     6   ar
    13     6    20    1
    14    20    21    1
    15    21    22    1
    16    22    23    1
    17    23    24    1
    18    24    25    1
    19    25    26    1
    20    26    27    1
    21     6     7   ar
    22     7     8   ar
    23     8     9   ar
    24     9    10   ar
    25    13    14   ar
    26    14    15   ar
    27    15    11   ar
    28    10     1   ar
    29     9     4   ar
    30    26    22    1
@<TRIPOS>MOLECULE
*****
 27 30 0 0 0
SMALL
GASTEIGER

@<TRIPOS>ATOM
      1 C         139.5687  139.5380  166.4295 C.ar    1  UNL1        0.1183
      2 C         138.7713  138.3687  165.9326 C.ar    1  UNL1        0.0223
      3 C         138.9355  137.8954  164.5188 C.ar    1  UNL1        0.0031
      4 C         139.8972  138.5914  163.6018 C.ar    1  UNL1        0.0174
      5 C         140.0614  138.1181  162.1879 C.ar    1  UNL1       -0.0027
      6 C         141.0230  138.8140  161.2709 C.ar    1  UNL1       -0.0207
      7 C         141.8204  139.9834  161.7678 C.ar    1  UNL1       -0.0027
      8 C         141.6562  140.4567  163.1817 C.ar    1  UNL1        0.0188
      9 C         140.6946  139.7607  164.0987 C.ar    1  UNL1        0.0813
     10 N         140.5303  140.2340  165.5125 N.ar    1  UNL1       -0.2422
     11 C         139.6427  141.2923  169.8911 C.ar    1  UNL1        0.1983
     12 C         140.1021  141.1836  168.4673 C.ar    1  UNL1        0.0708
     13 C         139.4045  140.0114  167.8434 C.ar    1  UNL1        0.1946
     14 O         138.5139  139.3957  168.8815 O.2     1  UNL1       -0.3516
     15 N         138.6611  140.1873  170.1470 N.ar    1  UNL1       -0.0703
     16 C         140.0868  142.3248  170.8844 C.2     1  UNL1        0.3626
     17 O         139.1495  143.4210  171.2966 O.2     1  UNL1       -0.2431
     18 C         142.6332  142.8030  170.6918 C.3     1  UNL1        0.2560
     19 O         141.4681  142.2610  171.4657 O.3     1  UNL1       -0.4402
     20 C         141.1872  138.3407  159.8571 C.3     1  UNL1        0.0437
     21 C         140.2675  138.8462  158.7853 C.3     1  UNL1        0.0768
     22 N         139.8059  140.2732  158.8047 N.3     1  UNL1       -0.2737
     23 C         140.5056  141.4351  158.1640 C.3     1  UNL1        0.0721
     24 C         139.6956  142.6689  158.4316 C.3     1  UNL1        0.0187
     25 C         138.4953  142.2696  159.2378 C.3     1  UNL1        0.0174
     26 C         138.5635  140.7890  159.4684 C.3     1  UNL1        0.0576
     27 C         137.5646  139.9683  160.2291 C.3     1  UNL1        0.0173
@<TRIPOS>BOND
     1    18    19    1
     2    19    16    1
     3    16    17    2
     4    16    11    1
     5    11    12   ar
     6    12    13   ar
     7    13     1    1
     8     1     2   ar
     9     2     3   ar
    10     3     4   ar
    11     4     5   ar
    12     5     6   ar
    13     6    20    1
    14    20    21    1
    15    21    22    1
    16    22    23    1
    17    23    24    1
    18    24    25    1
    19    25    26    1
    20    26    27    1
    21     6     7   ar
    22     7     8   ar
    23     8     9   ar
    24     9    10   ar
    25    13    14   ar
    26    14    15   ar
    27    15    11   ar
    28    10     1   ar
    29     9     4   ar
    30    26    22    1
@<TRIPOS>MOLECULE
*****
 27 30 0 0 0
SMALL
GASTEIGER

@<TRIPOS>ATOM
      1 C         140.6541  143.6112  162.5559 C.ar    1  UNL1        0.1183
      2 C         140.3537  144.5684  163.6710 C.ar    1  UNL1        0.0223
      3 C         140.0652  144.0487  165.0482 C.ar    1  UNL1        0.0031
      4 C         140.0772  142.5718  165.3103 C.ar    1  UNL1        0.0174
      5 C         139.7887  142.0522  166.6875 C.ar    1  UNL1       -0.0027
      6 C         139.8006  140.5753  166.9496 C.ar    1  UNL1       -0.0207
      7 C         140.1010  139.6181  165.8344 C.ar    1  UNL1       -0.0027
      8 C         140.3895  140.1377  164.4573 C.ar    1  UNL1        0.0188
      9 C         140.3776  141.6146  164.1952 C.ar    1  UNL1        0.0813
     10 N         140.6660  142.1343  162.8180 N.ar    1  UNL1       -0.2422
     11 C         140.6765  144.7945  158.8593 C.ar    1  UNL1        0.1983
     12 C         139.9634  144.2163  160.0455 C.ar    1  UNL1        0.0708
     13 C         140.9426  144.1308  161.1786 C.ar    1  UNL1        0.1946
     14 O         142.2608  144.6563  160.6927 O.2     1  UNL1       -0.3516
     15 N         142.0964  145.0664  159.2593 N.ar    1  UNL1       -0.0703
     16 C         140.0752  145.0550  157.5100 C.2     1  UNL1        0.3626
     17 O         139.2091  144.0161  156.8616 O.2     1  UNL1       -0.2431
     18 C         139.2014  147.1389  156.2278 C.3     1  UNL1        0.2560
     19 O         140.3402  146.3545  156.8091 O.3     1  UNL1       -0.4402
     20 C         139.5122  140.0556  168.3268 C.3     1  UNL1        0.0437
     21 C         140.6303  139.8777  169.3108 C.3     1  UNL1        0.0768
     22 N         141.5835  141.0053  169.5750 N.3     1  UNL1       -0.2737
     23 C         143.0612  140.9894  169.3177 C.3     1  UNL1        0.0721
     24 C         143.6172  142.3212  169.7265 C.3     1  UNL1        0.0187
     25 C         142.4832  143.1602  170.2365 C.3     1  UNL1        0.0174
     26 C         141.2263  142.3469  170.1428 C.3     1  UNL1        0.0576
     27 C         139.8532  142.7964  170.5462 C.3     1  UNL1        0.0173
@<TRIPOS>BOND
     1    18    19    1
     2    19    16    1
     3    16    17    2
     4    16    11    1
     5    11    12   ar
     6    12    13   ar
     7    13     1    1
     8     1     2   ar
     9     2     3   ar
    10     3     4   ar
    11     4     5   ar
    12     5     6   ar
    13     6    20    1
    14    20    21    1
    15    21    22    1
    16    22    23    1
    17    23    24    1
    18    24    25    1
    19    25    26    1
    20    26    27    1
    21     6     7   ar
    22     7     8   ar
    23     8     9   ar
    24     9    10   ar
    25    13    14   ar
    26    14    15   ar
    27    15    11   ar
    28    10     1   ar
    29     9     4   ar
    30    26    22    1
@<TRIPOS>MOLECULE
*****
 27 30 0 0 0
SMALL
GASTEIGER

@<TRIPOS>ATOM
      1 C         138.9341  139.7563  166.4896 C.ar    1  UNL1        0.1183
      2 C         139.0085  138.3631  165.9388 C.ar    1  UNL1        0.0223
      3 C         138.7681  138.1202  164.4783 C.ar    1  UNL1        0.0031
      4 C         138.4533  139.2705  163.5685 C.ar    1  UNL1        0.0174
      5 C         138.2130  139.0275  162.1079 C.ar    1  UNL1       -0.0027
      6 C         137.8982  140.1779  161.1982 C.ar    1  UNL1       -0.0207
      7 C         137.8238  141.5711  161.7490 C.ar    1  UNL1       -0.0027
      8 C         138.0641  141.8140  163.2095 C.ar    1  UNL1        0.0188
      9 C         138.3789  140.6637  164.1193 C.ar    1  UNL1        0.0813
     10 N         138.6193  140.9066  165.5798 N.ar    1  UNL1       -0.2422
     11 C         140.1327  140.8066  170.0288 C.ar    1  UNL1        0.1983
     12 C         140.2676  140.8434  168.5354 C.ar    1  UNL1        0.0708
     13 C         139.1744  139.9993  167.9502 C.ar    1  UNL1        0.1946
     14 O         138.3638  139.4408  169.0820 O.2     1  UNL1       -0.3516
     15 N         138.9560  139.9397  170.3666 N.ar    1  UNL1       -0.0703
     16 C         141.0188  141.5127  171.0118 C.2     1  UNL1        0.3626
     17 O         140.4329  142.1034  172.2599 O.2     1  UNL1       -0.2431
     18 C         143.0806  142.9498  170.3534 C.3     1  UNL1        0.2560
     19 O         142.4906  141.6280  170.7467 O.3     1  UNL1       -0.4402
     20 C         137.6578  139.9350  159.7376 C.3     1  UNL1        0.0437
     21 C         138.5968  140.5076  158.7176 C.3     1  UNL1        0.0768
     22 N         138.5682  140.0033  157.3052 N.3     1  UNL1       -0.2737
     23 C         139.3991  138.8837  156.7518 C.3     1  UNL1        0.0721
     24 C         139.0481  138.7184  155.3028 C.3     1  UNL1        0.0187
     25 C         138.0003  139.7359  154.9608 C.3     1  UNL1        0.0174
     26 C         137.7037  140.5299  156.1983 C.3     1  UNL1        0.0576
     27 C         136.7161  141.6534  156.3094 C.3     1  UNL1        0.0173
@<TRIPOS>BOND
     1    18    19    1
     2    19    16    1
     3    16    17    2
     4    16    11    1
     5    11    12   ar
     6    12    13   ar
     7    13     1    1
     8     1     2   ar
     9     2     3   ar
    10     3     4   ar
    11     4     5   ar
    12     5     6   ar
    13     6    20    1
    14    20    21    1
    15    21    22    1
    16    22    23    1
    17    23    24    1
    18    24    25    1
    19    25    26    1
    20    26    27    1
    21     6     7   ar
    22     7     8   ar
    23     8     9   ar
    24     9    10   ar
    25    13    14   ar
    26    14    15   ar
    27    15    11   ar
    28    10     1   ar
    29     9     4   ar
    30    26    22    1
@<TRIPOS>MOLECULE
*****
 27 30 0 0 0
SMALL
GASTEIGER

@<TRIPOS>ATOM
      1 C         138.3091  140.2076  160.5024 C.ar    1  UNL1        0.1183
      2 C         138.0246  141.5231  161.1645 C.ar    1  UNL1        0.0223
      3 C         138.0217  141.6243  162.6610 C.ar    1  UNL1        0.0031
      4 C         138.3034  140.4101  163.4954 C.ar    1  UNL1        0.0174
      5 C         138.3005  140.5113  164.9921 C.ar    1  UNL1       -0.0027
      6 C         138.5822  139.2971  165.8265 C.ar    1  UNL1       -0.0207
      7 C         138.8667  137.9815  165.1642 C.ar    1  UNL1       -0.0027
      8 C         138.8696  137.8803  163.6677 C.ar    1  UNL1        0.0188
      9 C         138.5879  139.0946  162.8333 C.ar    1  UNL1        0.0813
     10 N         138.5908  138.9934  161.3367 N.ar    1  UNL1       -0.2422
     11 C         139.0440  139.7684  156.7165 C.ar    1  UNL1        0.1983
     12 C         139.4908  139.7522  158.1483 C.ar    1  UNL1        0.0708
     13 C         138.3120  140.1064  159.0057 C.ar    1  UNL1        0.1946
     14 O         137.1368  140.3414  158.1038 O.2     1  UNL1       -0.3516
     15 N         137.5891  140.1326  156.6890 N.ar    1  UNL1       -0.0703
     16 C         139.9015  139.4725  155.5219 C.2     1  UNL1        0.3626
     17 O         140.8366  140.5189  154.9921 O.2     1  UNL1       -0.2431
     18 C         139.1012  137.0007  155.5295 C.3     1  UNL1        0.2560
     19 O         139.8240  138.1301  154.8571 O.3     1  UNL1       -0.4402
     20 C         138.5793  139.3983  167.3230 C.3     1  UNL1        0.0437
     21 C         139.8396  139.7575  168.0529 C.3     1  UNL1        0.0768
     22 N         139.9527  141.0826  168.7466 N.3     1  UNL1       -0.2737
     23 C         139.5728  141.3683  170.1693 C.3     1  UNL1        0.0721
     24 C         139.8509  142.8169  170.4415 C.3     1  UNL1        0.0187
     25 C         140.4028  143.4265  169.1869 C.3     1  UNL1        0.0174
     26 C         140.4657  142.3547  168.1395 C.3     1  UNL1        0.0576
     27 C         140.9557  142.5250  166.7321 C.3     1  UNL1        0.0173
@<TRIPOS>BOND
     1    18    19    1
     2    19    16    1
     3    16    17    2
     4    16    11    1
     5    11    12   ar
     6    12    13   ar
     7    13     1    1
     8     1     2   ar
     9     2     3   ar
    10     3     4   ar
    11     4     5   ar
    12     5     6   ar
    13     6    20    1
    14    20    21    1
    15    21    22    1
    16    22    23    1
    17    23    24    1
    18    24    25    1
    19    25    26    1
    20    26    27    1
    21     6     7   ar
    22     7     8   ar
    23     8     9   ar
    24     9    10   ar
    25    13    14   ar
    26    14    15   ar
    27    15    11   ar
    28    10     1   ar
    29     9     4   ar
    30    26    22    1
@<TRIPOS>MOLECULE
*****
 27 30 0 0 0
SMALL
GASTEIGER

@<TRIPOS>ATOM
      1 C         141.5590  144.6675  160.7766 C.ar    1  UNL1        0.1183
      2 C         140.3413  144.6827  161.6523 C.ar    1  UNL1        0.0223
      3 C         140.4329  144.2089  163.0725 C.ar    1  UNL1        0.0031
      4 C         141.7422  143.7200  163.6171 C.ar    1  UNL1        0.0174
      5 C         141.8337  143.2462  165.0374 C.ar    1  UNL1       -0.0027
      6 C         143.1431  142.7573  165.5820 C.ar    1  UNL1       -0.0207
      7 C         144.3609  142.7421  164.7063 C.ar    1  UNL1       -0.0027
      8 C         144.2693  143.2158  163.2860 C.ar    1  UNL1        0.0188
      9 C         142.9599  143.7048  162.7415 C.ar    1  UNL1        0.0813
     10 N         142.8683  144.1785  161.3212 N.ar    1  UNL1       -0.2422
     11 C         140.6008  146.0310  157.2711 C.ar    1  UNL1        0.1983
     12 C         140.2394  145.6797  158.6839 C.ar    1  UNL1        0.0708
     13 C         141.4674  145.1412  159.3563 C.ar    1  UNL1        0.1946
     14 O         142.5878  145.1597  158.3591 O.2     1  UNL1       -0.3516
     15 N         142.0522  145.7096  157.0704 N.ar    1  UNL1       -0.0703
     16 C         139.6736  146.6031  156.2401 C.2     1  UNL1        0.3626
     17 O         139.5626  145.9577  154.8907 O.2     1  UNL1       -0.2431
     18 C         138.8024  148.9619  155.5867 C.3     1  UNL1        0.2560
     19 O         138.8575  147.8207  156.5586 O.3     1  UNL1       -0.4402
     20 C         143.2347  142.2835  167.0023 C.3     1  UNL1        0.0437
     21 C         142.4061  141.1197  167.4596 C.3     1  UNL1        0.0768
     22 N         142.0694  140.0161  166.5012 N.3     1  UNL1       -0.2737
     23 C         143.0244  138.9901  165.9671 C.3     1  UNL1        0.0721
     24 C         142.2637  138.0846  165.0444 C.3     1  UNL1        0.0187
     25 C         140.8385  138.5510  165.0082 C.3     1  UNL1        0.0174
     26 C         140.7184  139.7447  165.9085 C.3     1  UNL1        0.0576
     27 C         139.4670  140.5293  166.1703 C.3     1  UNL1        0.0173
@<TRIPOS>BOND
     1    18    19    1
     2    19    16    1
     3    16    17    2
     4    16    11    1
     5    11    12   ar
     6    12    13   ar
     7    13     1    1
     8     1     2   ar
     9     2     3   ar
    10     3     4   ar
    11     4     5   ar
    12     5     6   ar
    13     6    20    1
    14    20    21    1
    15    21    22    1
    16    22    23    1
    17    23    24    1
    18    24    25    1
    19    25    26    1
    20    26    27    1
    21     6     7   ar
    22     7     8   ar
    23     8     9   ar
    24     9    10   ar
    25    13    14   ar
    26    14    15   ar
    27    15    11   ar
    28    10     1   ar
    29     9     4   ar
    30    26    22    1
@<TRIPOS>MOLECULE
*****
 27 30 0 0 0
SMALL
GASTEIGER

@<TRIPOS>ATOM
      1 C         142.6367  138.2296  159.8399 C.ar    1  UNL1        0.1183
      2 C         143.7830  139.1299  160.1940 C.ar    1  UNL1        0.0223
      3 C         144.0905  139.4219  161.6328 C.ar    1  UNL1        0.0031
      4 C         143.2518  138.8136  162.7174 C.ar    1  UNL1        0.0174
      5 C         143.5594  139.1056  164.1563 C.ar    1  UNL1       -0.0027
      6 C         142.7207  138.4973  165.2409 C.ar    1  UNL1       -0.0207
      7 C         141.5743  137.5969  164.8867 C.ar    1  UNL1       -0.0027
      8 C         141.2668  137.3050  163.4480 C.ar    1  UNL1        0.0188
      9 C         142.1055  137.9133  162.3633 C.ar    1  UNL1        0.0813
     10 N         141.7979  137.6213  160.9245 N.ar    1  UNL1       -0.2422
     11 C         141.1228  137.4765  156.3461 C.ar    1  UNL1        0.1983
     12 C         140.9625  137.7470  157.8127 C.ar    1  UNL1        0.0708
     13 C         142.3291  137.9376  158.4010 C.ar    1  UNL1        0.1946
     14 O         143.3340  137.7850  157.2980 O.2     1  UNL1       -0.3516
     15 N         142.5885  137.5000  156.0279 N.ar    1  UNL1       -0.0703
     16 C         140.0124  137.2265  155.3691 C.2     1  UNL1        0.3626
     17 O         138.6194  136.9748  155.8652 O.2     1  UNL1       -0.2431
     18 C         139.2966  136.6456  152.9400 C.3     1  UNL1        0.2560
     19 O         140.2950  137.2281  153.8959 O.3     1  UNL1       -0.4402
     20 C         143.0282  138.7892  166.6797 C.3     1  UNL1        0.0437
     21 C         142.5933  140.0882  167.2910 C.3     1  UNL1        0.0768
     22 N         141.4764  140.1093  168.2920 N.3     1  UNL1       -0.2737
     23 C         141.6295  140.1037  169.7842 C.3     1  UNL1        0.0721
     24 C         140.2579  140.1306  170.3910 C.3     1  UNL1        0.0187
     25 C         139.2572  140.1528  169.2737 C.3     1  UNL1        0.0174
     26 C         140.0102  140.1396  167.9765 C.3     1  UNL1        0.0576
     27 C         139.4036  140.1543  166.6048 C.3     1  UNL1        0.0173
@<TRIPOS>BOND
     1    18    19    1
     2    19    16    1
     3    16    17    2
     4    16    11    1
     5    11    12   ar
     6    12    13   ar
     7    13     1    1
     8     1     2   ar
     9     2     3   ar
    10     3     4   ar
    11     4     5   ar
    12     5     6   ar
    13     6    20    1
    14    20    21    1
    15    21    22    1
    16    22    23    1
    17    23    24    1
    18    24    25    1
    19    25    26    1
    20    26    27    1
    21     6     7   ar
    22     7     8   ar
    23     8     9   ar
    24     9    10   ar
    25    13    14   ar
    26    14    15   ar
    27    15    11   ar
    28    10     1   ar
    29     9     4   ar
    30    26    22    1
