@<TRIPOS>MOLECULE
*****
 40 43 0 0 0
SMALL
GASTEIGER

@<TRIPOS>ATOM
      1 C         139.4844  140.6159  164.6748 C.3     1  UNL1        0.0776
      2 C         139.7140  140.6186  166.1572 C.ar    1  UNL1        0.0373
      3 C         140.7235  141.5512  166.7581 C.ar    1  UNL1        0.0023
      4 C         140.9530  141.5539  168.2405 C.ar    1  UNL1        0.0181
      5 C         141.9625  142.4865  168.8414 C.ar    1  UNL1        0.0082
      6 C         142.1920  142.4891  170.3237 C.ar    1  UNL1        0.0347
      7 BR        143.2016  143.4217  170.9247 Br      1  UNL1       -0.0490
      8 C         141.4120  141.5592  171.2051 C.ar    1  UNL1        0.0082
      9 C         140.4025  140.6266  170.6042 C.ar    1  UNL1        0.0197
     10 C         140.1730  140.6240  169.1219 C.ar    1  UNL1        0.0844
     11 N         139.1635  139.6914  168.5209 N.ar    1  UNL1       -0.2119
     12 C         138.9339  139.6887  167.0386 C.ar    1  UNL1        0.2211
     13 O         137.9244  138.7561  166.4376 O.3     1  UNL1       -0.4563
     14 C         137.1363  137.8342  167.3202 C.3     1  UNL1        0.2542
     15 C         139.0546  141.8739  163.9801 C.ar    1  UNL1       -0.0160
     16 C         138.0329  142.7698  164.6153 C.ar    1  UNL1       -0.0039
     17 C         137.6030  144.0279  163.9206 C.ar    1  UNL1       -0.0006
     18 C         138.1949  144.3900  162.5908 C.ar    1  UNL1       -0.0043
     19 C         139.2167  143.4941  161.9556 C.ar    1  UNL1       -0.0222
     20 C         139.8086  143.8562  160.6258 C.3     1  UNL1        0.0310
     21 C         139.6465  142.2361  162.6503 C.ar    1  UNL1       -0.0081
     22 C         139.6847  139.3551  163.8872 C.3     1  UNL1        0.1161
     23 O         138.2363  139.3686  163.4973 O.3     1  UNL1       -0.3820
     24 H         138.0462  138.6029  162.9330 H       1  UNL1        0.2107
     25 C         143.5207  140.3501  164.0984 C.ar    1  UNL1        0.2271
     26 C         142.0724  140.3636  163.7085 C.ar    1  UNL1        0.0559
     27 C         141.1331  139.3417  164.2771 C.ar    1  UNL1        0.0117
     28 C         141.6421  138.3063  165.2355 C.ar    1  UNL1        0.0559
     29 C         143.0905  138.2928  165.6254 C.ar    1  UNL1        0.2272
     30 N         144.0298  139.3147  165.0568 N.ar    1  UNL1       -0.1767
     31 O         143.5996  137.2573  166.5840 O.3     1  UNL1       -0.4561
     32 C         145.0382  137.2711  167.0086 C.3     1  UNL1        0.2542
     33 O         144.4601  141.3721  163.5297 O.3     1  UNL1       -0.4602
     34 C         144.0550  142.9431  165.5589 C.3     1  UNL1        0.0512
     35 C         144.8566  142.5643  164.3491 C.3     1  UNL1        0.2072
     36 C         139.8850  138.0944  163.0995 C.3     1  UNL1        0.0491
     37 C         139.3568  137.9929  161.6993 C.3     1  UNL1        0.0750
     38 N         139.6210  139.0947  160.7164 N.3     1  UNL1       -0.2702
     39 C         138.4749  139.8374  160.0962 C.3     1  UNL1        0.0897
     40 C         141.0315  139.4538  160.3536 C.3     1  UNL1        0.0897
@<TRIPOS>BOND
     1    34    35    1
     2    35    33    1
     3    33    25    1
     4    25    26   ar
     5    26    27   ar
     6    27    22    1
     7    22    23    1
     8    22    36    1
     9    36    37    1
    10    37    38    1
    11    38    39    1
    12    38    40    1
    13    22     1    1
    14     1    15    1
    15    15    16   ar
    16    16    17   ar
    17    17    18   ar
    18    18    19   ar
    19    19    20    1
    20    19    21   ar
    21     1     2    1
    22     2     3   ar
    23     3     4   ar
    24     4     5   ar
    25     5     6   ar
    26     6     7    1
    27     6     8   ar
    28     8     9   ar
    29     9    10   ar
    30    10    11   ar
    31    11    12   ar
    32    12    13    1
    33    13    14    1
    34    27    28   ar
    35    28    29   ar
    36    29    31    1
    37    31    32    1
    38    29    30   ar
    39    30    25   ar
    40    21    15   ar
    41    12     2   ar
    42    10     4   ar
    43    23    24    1
@<TRIPOS>MOLECULE
*****
 40 43 0 0 0
SMALL
GASTEIGER

@<TRIPOS>ATOM
      1 C         140.6849  140.6038  163.1369 C.3     1  UNL1        0.0776
      2 C         140.3827  140.5269  164.6042 C.ar    1  UNL1        0.0373
      3 C         140.6226  141.7187  165.4829 C.ar    1  UNL1        0.0023
      4 C         140.3205  141.6418  166.9501 C.ar    1  UNL1        0.0181
      5 C         140.5604  142.8335  167.8288 C.ar    1  UNL1        0.0082
      6 C         140.2582  142.7566  169.2960 C.ar    1  UNL1        0.0347
      7 BR        140.4981  143.9484  170.1747 Br      1  UNL1       -0.0490
      8 C         139.7161  141.4878  169.8845 C.ar    1  UNL1        0.0082
      9 C         139.4762  140.2961  169.0059 C.ar    1  UNL1        0.0197
     10 C         139.7784  140.3730  167.5387 C.ar    1  UNL1        0.0844
     11 N         139.5385  139.1812  166.6600 N.ar    1  UNL1       -0.2119
     12 C         139.8406  139.2581  165.1928 C.ar    1  UNL1        0.2211
     13 O         139.6007  138.0663  164.3141 O.3     1  UNL1       -0.4563
     14 C         140.6270  136.9753  164.2334 C.3     1  UNL1        0.2542
     15 C         141.8214  139.8110  162.5627 C.ar    1  UNL1       -0.0160
     16 C         143.1028  139.6732  163.3301 C.ar    1  UNL1       -0.0039
     17 C         144.2394  138.8803  162.7558 C.ar    1  UNL1       -0.0006
     18 C         144.0944  138.2254  161.4142 C.ar    1  UNL1       -0.0043
     19 C         142.8129  138.3632  160.6468 C.ar    1  UNL1       -0.0222
     20 C         142.6680  137.7082  159.3052 C.3     1  UNL1        0.0310
     21 C         141.6764  139.1560  161.2211 C.ar    1  UNL1       -0.0081
     22 C         139.8505  141.4735  162.2440 C.3     1  UNL1        0.1161
     23 O         138.6697  140.5778  162.4749 O.3     1  UNL1       -0.3820
     24 H         137.9065  140.9150  161.9802 H       1  UNL1        0.2107
     25 C         142.8675  143.9558  162.9412 C.ar    1  UNL1        0.2271
     26 C         141.6867  143.0601  163.1721 C.ar    1  UNL1        0.0559
     27 C         141.0313  142.3693  162.0131 C.ar    1  UNL1        0.0117
     28 C         141.5568  142.5742  160.6232 C.ar    1  UNL1        0.0559
     29 C         142.7376  143.4700  160.3923 C.ar    1  UNL1        0.2272
     30 N         143.3930  144.1608  161.5513 N.ar    1  UNL1       -0.1767
     31 O         143.2631  143.6749  159.0023 O.3     1  UNL1       -0.4561
     32 C         142.3312  144.0863  157.9013 C.3     1  UNL1        0.2542
     33 O         143.5229  144.6466  164.1003 O.3     1  UNL1       -0.4602
     34 C         144.9731  142.5515  164.6074 C.3     1  UNL1        0.0512
     35 C         144.4031  143.8713  165.0352 C.3     1  UNL1        0.2072
     36 C         139.0161  142.3433  161.3510 C.3     1  UNL1        0.0491
     37 C         137.9430  143.2109  161.9389 C.3     1  UNL1        0.0750
     38 N         138.2958  144.2531  162.9584 N.3     1  UNL1       -0.2702
     39 C         137.8761  144.0765  164.3876 C.3     1  UNL1        0.0897
     40 C         139.0682  145.4719  162.5487 C.3     1  UNL1        0.0897
@<TRIPOS>BOND
     1    34    35    1
     2    35    33    1
     3    33    25    1
     4    25    26   ar
     5    26    27   ar
     6    27    22    1
     7    22    23    1
     8    22    36    1
     9    36    37    1
    10    37    38    1
    11    38    39    1
    12    38    40    1
    13    22     1    1
    14     1    15    1
    15    15    16   ar
    16    16    17   ar
    17    17    18   ar
    18    18    19   ar
    19    19    20    1
    20    19    21   ar
    21     1     2    1
    22     2     3   ar
    23     3     4   ar
    24     4     5   ar
    25     5     6   ar
    26     6     7    1
    27     6     8   ar
    28     8     9   ar
    29     9    10   ar
    30    10    11   ar
    31    11    12   ar
    32    12    13    1
    33    13    14    1
    34    27    28   ar
    35    28    29   ar
    36    29    31    1
    37    31    32    1
    38    29    30   ar
    39    30    25   ar
    40    21    15   ar
    41    12     2   ar
    42    10     4   ar
    43    23    24    1
@<TRIPOS>MOLECULE
*****
 40 43 0 0 0
SMALL
GASTEIGER

@<TRIPOS>ATOM
      1 C         141.3575  140.9766  162.5855 C.3     1  UNL1        0.0776
      2 C         141.3608  140.7038  164.0606 C.ar    1  UNL1        0.0373
      3 C         141.0279  141.8015  165.0271 C.ar    1  UNL1        0.0023
      4 C         141.0312  141.5287  166.5021 C.ar    1  UNL1        0.0181
      5 C         140.6983  142.6265  167.4686 C.ar    1  UNL1        0.0082
      6 C         140.7016  142.3536  168.9435 C.ar    1  UNL1        0.0347
      7 BR        140.3687  143.4514  169.9101 Br      1  UNL1       -0.0490
      8 C         141.0379  140.9831  169.4520 C.ar    1  UNL1        0.0082
      9 C         141.3708  139.8854  168.4855 C.ar    1  UNL1        0.0197
     10 C         141.3674  140.1582  167.0106 C.ar    1  UNL1        0.0844
     11 N         141.7004  139.0604  166.0440 N.ar    1  UNL1       -0.2119
     12 C         141.6971  139.3333  164.5690 C.ar    1  UNL1        0.2211
     13 O         142.0300  138.2355  163.6025 O.3     1  UNL1       -0.4563
     14 C         141.0030  137.1953  163.2663 C.3     1  UNL1        0.2542
     15 C         140.2147  140.5022  161.7377 C.ar    1  UNL1       -0.0160
     16 C         138.8020  140.7562  162.1729 C.ar    1  UNL1       -0.0039
     17 C         137.6591  140.2818  161.3250 C.ar    1  UNL1       -0.0006
     18 C         137.9291  139.5533  160.0419 C.ar    1  UNL1       -0.0043
     19 C         139.3420  139.2993  159.6066 C.ar    1  UNL1       -0.0222
     20 C         139.6120  138.5708  158.3235 C.3     1  UNL1        0.0310
     21 C         140.4848  139.7737  160.4545 C.ar    1  UNL1       -0.0081
     22 C         142.4970  141.7239  161.9585 C.3     1  UNL1        0.1161
     23 O         143.4089  140.5656  162.2353 O.3     1  UNL1       -0.3820
     24 H         144.3002  140.7715  161.9127 H       1  UNL1        0.2107
     25 C         140.0211  144.7701  162.5417 C.ar    1  UNL1        0.2271
     26 C         140.9330  143.6118  162.8185 C.ar    1  UNL1        0.0559
     27 C         141.5850  142.8822  161.6817 C.ar    1  UNL1        0.0117
     28 C         141.3251  143.3109  160.2680 C.ar    1  UNL1        0.0559
     29 C         140.4131  144.4693  159.9911 C.ar    1  UNL1        0.2272
     30 N         139.7611  145.1989  161.1280 N.ar    1  UNL1       -0.1767
     31 O         140.1532  144.8980  158.5773 O.3     1  UNL1       -0.4561
     32 C         141.1872  145.6878  157.8310 C.3     1  UNL1        0.2542
     33 O         139.3690  145.4998  163.6786 O.3     1  UNL1       -0.4602
     34 C         137.7849  143.5970  164.4661 C.3     1  UNL1        0.0512
     35 C         138.7146  144.7296  164.7870 C.3     1  UNL1        0.2072
     36 C         143.6365  142.4711  161.3314 C.3     1  UNL1        0.0491
     37 C         144.5690  143.2742  162.1890 C.3     1  UNL1        0.0750
     38 N         144.9086  142.8037  163.5722 N.3     1  UNL1       -0.2702
     39 C         145.8909  141.6866  163.7644 C.3     1  UNL1        0.0897
     40 C         144.2658  143.4504  164.7632 C.3     1  UNL1        0.0897
@<TRIPOS>BOND
     1    34    35    1
     2    35    33    1
     3    33    25    1
     4    25    26   ar
     5    26    27   ar
     6    27    22    1
     7    22    23    1
     8    22    36    1
     9    36    37    1
    10    37    38    1
    11    38    39    1
    12    38    40    1
    13    22     1    1
    14     1    15    1
    15    15    16   ar
    16    16    17   ar
    17    17    18   ar
    18    18    19   ar
    19    19    20    1
    20    19    21   ar
    21     1     2    1
    22     2     3   ar
    23     3     4   ar
    24     4     5   ar
    25     5     6   ar
    26     6     7    1
    27     6     8   ar
    28     8     9   ar
    29     9    10   ar
    30    10    11   ar
    31    11    12   ar
    32    12    13    1
    33    13    14    1
    34    27    28   ar
    35    28    29   ar
    36    29    31    1
    37    31    32    1
    38    29    30   ar
    39    30    25   ar
    40    21    15   ar
    41    12     2   ar
    42    10     4   ar
    43    23    24    1
@<TRIPOS>MOLECULE
*****
 40 43 0 0 0
SMALL
GASTEIGER

@<TRIPOS>ATOM
      1 C         141.3299  142.0030  164.6096 C.3     1  UNL1        0.0776
      2 C         142.1841  142.1744  163.3884 C.ar    1  UNL1        0.0373
      3 C         141.9428  141.3210  162.1787 C.ar    1  UNL1        0.0023
      4 C         142.7970  141.4924  160.9575 C.ar    1  UNL1        0.0181
      5 C         142.5557  140.6390  159.7478 C.ar    1  UNL1        0.0082
      6 C         143.4099  140.8104  158.5267 C.ar    1  UNL1        0.0347
      7 BR        143.1687  139.9570  157.3168 Br      1  UNL1       -0.0490
      8 C         144.5052  141.8351  158.5154 C.ar    1  UNL1        0.0082
      9 C         144.7465  142.6885  159.7251 C.ar    1  UNL1        0.0197
     10 C         143.8923  142.5171  160.9462 C.ar    1  UNL1        0.0844
     11 N         144.1336  143.3705  162.1560 N.ar    1  UNL1       -0.2119
     12 C         143.2794  143.1991  163.3771 C.ar    1  UNL1        0.2211
     13 O         143.5207  144.0525  164.5870 O.3     1  UNL1       -0.4563
     14 C         144.6463  143.7256  165.5230 C.3     1  UNL1        0.2542
     15 C         141.8749  141.2911  165.8121 C.ar    1  UNL1       -0.0160
     16 C         141.7722  141.9234  167.1684 C.ar    1  UNL1       -0.0039
     17 C         142.3171  141.2114  168.3711 C.ar    1  UNL1       -0.0006
     18 C         142.9648  139.8672  168.2173 C.ar    1  UNL1       -0.0043
     19 C         143.0674  139.2349  166.8609 C.ar    1  UNL1       -0.0222
     20 C         143.7151  137.8907  166.7071 C.3     1  UNL1        0.0310
     21 C         142.5225  139.9469  165.6583 C.ar    1  UNL1       -0.0081
     22 C         139.9309  142.5437  164.6281 C.3     1  UNL1        0.1161
     23 O         140.4688  143.9395  164.5170 O.3     1  UNL1       -0.3820
     24 H         139.7317  144.5700  164.5043 H       1  UNL1        0.2107
     25 C         138.7895  138.8746  163.6356 C.ar    1  UNL1        0.2271
     26 C         139.3274  140.2704  163.5245 C.ar    1  UNL1        0.0559
     27 C         139.3930  141.1478  164.7393 C.ar    1  UNL1        0.0117
     28 C         138.9207  140.6294  166.0652 C.ar    1  UNL1        0.0559
     29 C         138.3828  139.2336  166.1763 C.ar    1  UNL1        0.2272
     30 N         138.3172  138.3562  164.9615 N.ar    1  UNL1       -0.1767
     31 O         137.9104  138.7152  167.5023 O.3     1  UNL1       -0.4561
     32 C         136.9466  137.5673  167.5587 C.3     1  UNL1        0.2542
     33 O         138.7239  137.9972  162.4207 O.3     1  UNL1       -0.4602
     34 C         139.4470  138.6021  159.9997 C.3     1  UNL1        0.0512
     35 C         139.7887  138.0924  161.3684 C.3     1  UNL1        0.2072
     36 C         138.5318  143.0843  164.6467 C.3     1  UNL1        0.0491
     37 C         138.1695  144.2571  163.7847 C.3     1  UNL1        0.0750
     38 N         138.6420  144.3169  162.3623 N.3     1  UNL1       -0.2702
     39 C         139.3468  145.5407  161.8569 C.3     1  UNL1        0.0897
     40 C         138.4097  143.1528  161.4453 C.3     1  UNL1        0.0897
@<TRIPOS>BOND
     1    34    35    1
     2    35    33    1
     3    33    25    1
     4    25    26   ar
     5    26    27   ar
     6    27    22    1
     7    22    23    1
     8    22    36    1
     9    36    37    1
    10    37    38    1
    11    38    39    1
    12    38    40    1
    13    22     1    1
    14     1    15    1
    15    15    16   ar
    16    16    17   ar
    17    17    18   ar
    18    18    19   ar
    19    19    20    1
    20    19    21   ar
    21     1     2    1
    22     2     3   ar
    23     3     4   ar
    24     4     5   ar
    25     5     6   ar
    26     6     7    1
    27     6     8   ar
    28     8     9   ar
    29     9    10   ar
    30    10    11   ar
    31    11    12   ar
    32    12    13    1
    33    13    14    1
    34    27    28   ar
    35    28    29   ar
    36    29    31    1
    37    31    32    1
    38    29    30   ar
    39    30    25   ar
    40    21    15   ar
    41    12     2   ar
    42    10     4   ar
    43    23    24    1
@<TRIPOS>MOLECULE
*****
 40 43 0 0 0
SMALL
GASTEIGER

@<TRIPOS>ATOM
      1 C         142.1494  141.1238  163.3300 C.3     1  UNL1        0.0776
      2 C         142.4144  141.4355  164.7732 C.ar    1  UNL1        0.0373
      3 C         141.5923  140.7828  165.8447 C.ar    1  UNL1        0.0023
      4 C         141.8573  141.0945  167.2879 C.ar    1  UNL1        0.0181
      5 C         141.0352  140.4418  168.3593 C.ar    1  UNL1        0.0082
      6 C         141.3002  140.7535  169.8024 C.ar    1  UNL1        0.0347
      7 BR        140.4781  140.1007  170.8740 Br      1  UNL1       -0.0490
      8 C         142.3873  141.7179  170.1740 C.ar    1  UNL1        0.0082
      9 C         143.2094  142.3706  169.1026 C.ar    1  UNL1        0.0197
     10 C         142.9444  142.0589  167.6595 C.ar    1  UNL1        0.0844
     11 N         143.7665  142.7116  166.5879 N.ar    1  UNL1       -0.2119
     12 C         143.5015  142.3999  165.1449 C.ar    1  UNL1        0.2211
     13 O         144.3237  143.0527  164.0733 O.3     1  UNL1       -0.4563
     14 C         143.9646  144.4242  163.5834 C.3     1  UNL1        0.2542
     15 C         141.3424  142.0722  162.4938 C.ar    1  UNL1       -0.0160
     16 C         141.8392  142.4883  161.1411 C.ar    1  UNL1       -0.0039
     17 C         141.0322  143.4368  160.3048 C.ar    1  UNL1       -0.0006
     18 C         139.7284  143.9690  160.8214 C.ar    1  UNL1       -0.0043
     19 C         139.2316  143.5528  162.1742 C.ar    1  UNL1       -0.0222
     20 C         137.9279  144.0851  162.6908 C.3     1  UNL1        0.0310
     21 C         140.0387  142.6045  163.0104 C.ar    1  UNL1       -0.0081
     22 C         142.6915  139.8637  162.7231 C.3     1  UNL1        0.1161
     23 O         144.0726  140.4489  162.7417 O.3     1  UNL1       -0.3820
     24 H         144.7007  139.8067  162.3757 H       1  UNL1        0.2107
     25 C         139.4045  137.9716  163.8914 C.ar    1  UNL1        0.2271
     26 C         140.7855  138.5567  163.9100 C.ar    1  UNL1        0.0559
     27 C         141.3105  139.2786  162.7045 C.ar    1  UNL1        0.0117
     28 C         140.4544  139.4153  161.4804 C.ar    1  UNL1        0.0559
     29 C         139.0734  138.8302  161.4618 C.ar    1  UNL1        0.2272
     30 N         138.5484  138.1083  162.6673 N.ar    1  UNL1       -0.1767
     31 O         138.2173  138.9670  160.2377 O.3     1  UNL1       -0.4561
     32 C         138.1017  140.2939  159.5478 C.3     1  UNL1        0.2542
     33 O         138.8795  137.2497  165.0970 O.3     1  UNL1       -0.4602
     34 C         138.0707  139.5070  166.0970 C.3     1  UNL1        0.0512
     35 C         138.1962  138.0152  166.1910 C.3     1  UNL1        0.2072
     36 C         143.2336  138.6036  162.1162 C.3     1  UNL1        0.0491
     37 C         144.1381  138.6752  160.9218 C.3     1  UNL1        0.0750
     38 N         143.5621  138.9181  159.5583 N.3     1  UNL1       -0.2702
     39 C         142.7297  137.8602  158.8964 C.3     1  UNL1        0.0897
     40 C         143.8185  140.2187  158.8565 C.3     1  UNL1        0.0897
@<TRIPOS>BOND
     1    34    35    1
     2    35    33    1
     3    33    25    1
     4    25    26   ar
     5    26    27   ar
     6    27    22    1
     7    22    23    1
     8    22    36    1
     9    36    37    1
    10    37    38    1
    11    38    39    1
    12    38    40    1
    13    22     1    1
    14     1    15    1
    15    15    16   ar
    16    16    17   ar
    17    17    18   ar
    18    18    19   ar
    19    19    20    1
    20    19    21   ar
    21     1     2    1
    22     2     3   ar
    23     3     4   ar
    24     4     5   ar
    25     5     6   ar
    26     6     7    1
    27     6     8   ar
    28     8     9   ar
    29     9    10   ar
    30    10    11   ar
    31    11    12   ar
    32    12    13    1
    33    13    14    1
    34    27    28   ar
    35    28    29   ar
    36    29    31    1
    37    31    32    1
    38    29    30   ar
    39    30    25   ar
    40    21    15   ar
    41    12     2   ar
    42    10     4   ar
    43    23    24    1
@<TRIPOS>MOLECULE
*****
 40 43 0 0 0
SMALL
GASTEIGER

@<TRIPOS>ATOM
      1 C         140.7197  140.6084  163.1795 C.3     1  UNL1        0.0776
      2 C         140.4205  140.5357  164.6476 C.ar    1  UNL1        0.0373
      3 C         140.6375  141.7380  165.5177 C.ar    1  UNL1        0.0023
      4 C         140.3383  141.6653  166.9858 C.ar    1  UNL1        0.0181
      5 C         140.5553  142.8677  167.8559 C.ar    1  UNL1        0.0082
      6 C         140.2561  142.7949  169.3240 C.ar    1  UNL1        0.0347
      7 BR        140.4730  143.9973  170.1942 Br      1  UNL1       -0.0490
      8 C         139.7398  141.5198  169.9219 C.ar    1  UNL1        0.0082
      9 C         139.5228  140.3174  169.0518 C.ar    1  UNL1        0.0197
     10 C         139.8221  140.3901  167.5837 C.ar    1  UNL1        0.0844
     11 N         139.6051  139.1877  166.7135 N.ar    1  UNL1       -0.2119
     12 C         139.9043  139.2605  165.2455 C.ar    1  UNL1        0.2211
     13 O         139.6873  138.0581  164.3753 O.3     1  UNL1       -0.4563
     14 C         140.7138  136.9650  164.3370 C.3     1  UNL1        0.2542
     15 C         141.8599  139.8199  162.6065 C.ar    1  UNL1       -0.0160
     16 C         143.1534  139.7168  163.3589 C.ar    1  UNL1       -0.0039
     17 C         144.2936  138.9283  162.7859 C.ar    1  UNL1       -0.0006
     18 C         144.1402  138.2428  161.4605 C.ar    1  UNL1       -0.0043
     19 C         142.8465  138.3459  160.7081 C.ar    1  UNL1       -0.0222
     20 C         142.6931  137.6605  159.3827 C.3     1  UNL1        0.0310
     21 C         141.7064  139.1344  161.2811 C.ar    1  UNL1       -0.0081
     22 C         139.8788  141.4696  162.2845 C.3     1  UNL1        0.1161
     23 O         138.6960  140.5845  162.5441 O.3     1  UNL1       -0.3820
     24 H         137.9283  140.9188  162.0543 H       1  UNL1        0.2107
     25 C         142.7341  143.4453  160.3625 C.ar    1  UNL1        0.2271
     26 C         141.5512  142.5602  160.6221 C.ar    1  UNL1        0.0559
     27 C         141.0616  142.3548  162.0249 C.ar    1  UNL1        0.0117
     28 C         141.7549  143.0347  163.1682 C.ar    1  UNL1        0.0559
     29 C         142.9377  143.9198  162.9087 C.ar    1  UNL1        0.2272
     30 N         143.4273  144.1252  161.5058 N.ar    1  UNL1       -0.1767
     31 O         143.6310  144.5997  164.0521 O.3     1  UNL1       -0.4561
     32 C         144.3593  143.7844  165.0791 C.3     1  UNL1        0.2542
     33 O         143.2237  143.6507  158.9595 O.3     1  UNL1       -0.4602
     34 C         141.4571  145.5009  158.5056 C.3     1  UNL1        0.0512
     35 C         142.4143  144.4653  157.9945 C.3     1  UNL1        0.2072
     36 C         139.0379  142.3309  161.3895 C.3     1  UNL1        0.0491
     37 C         137.9597  143.1935  161.9755 C.3     1  UNL1        0.0750
     38 N         138.3121  144.2701  162.9588 N.3     1  UNL1       -0.2702
     39 C         139.0854  145.4737  162.5079 C.3     1  UNL1        0.0897
     40 C         137.8912  144.1431  164.3929 C.3     1  UNL1        0.0897
@<TRIPOS>BOND
     1    34    35    1
     2    35    33    1
     3    33    25    1
     4    25    26   ar
     5    26    27   ar
     6    27    22    1
     7    22    23    1
     8    22    36    1
     9    36    37    1
    10    37    38    1
    11    38    39    1
    12    38    40    1
    13    22     1    1
    14     1    15    1
    15    15    16   ar
    16    16    17   ar
    17    17    18   ar
    18    18    19   ar
    19    19    20    1
    20    19    21   ar
    21     1     2    1
    22     2     3   ar
    23     3     4   ar
    24     4     5   ar
    25     5     6   ar
    26     6     7    1
    27     6     8   ar
    28     8     9   ar
    29     9    10   ar
    30    10    11   ar
    31    11    12   ar
    32    12    13    1
    33    13    14    1
    34    27    28   ar
    35    28    29   ar
    36    29    31    1
    37    31    32    1
    38    29    30   ar
    39    30    25   ar
    40    21    15   ar
    41    12     2   ar
    42    10     4   ar
    43    23    24    1
@<TRIPOS>MOLECULE
*****
 40 43 0 0 0
SMALL
GASTEIGER

@<TRIPOS>ATOM
      1 C         141.1697  140.1606  165.5729 C.3     1  UNL1        0.0776
      2 C         141.2668  139.8961  164.0996 C.ar    1  UNL1        0.0373
      3 C         140.1680  140.3458  163.1829 C.ar    1  UNL1        0.0023
      4 C         140.2651  140.0814  161.7095 C.ar    1  UNL1        0.0181
      5 C         139.1663  140.5311  160.7928 C.ar    1  UNL1        0.0082
      6 C         139.2634  140.2667  159.3195 C.ar    1  UNL1        0.0347
      7 BR        138.1646  140.7164  158.4027 Br      1  UNL1       -0.0490
      8 C         140.4594  139.5525  158.7630 C.ar    1  UNL1        0.0082
      9 C         141.5582  139.1028  159.6797 C.ar    1  UNL1        0.0197
     10 C         141.4610  139.3673  161.1529 C.ar    1  UNL1        0.0844
     11 N         142.5598  138.9176  162.0697 N.ar    1  UNL1       -0.2119
     12 C         142.4627  139.1820  163.5430 C.ar    1  UNL1        0.2211
     13 O         143.5615  138.7323  164.4598 O.3     1  UNL1       -0.4563
     14 C         144.9277  139.3415  164.3483 C.3     1  UNL1        0.2542
     15 C         139.9836  139.6667  166.3470 C.ar    1  UNL1       -0.0160
     16 C         139.0163  138.7135  165.7100 C.ar    1  UNL1       -0.0039
     17 C         137.8301  138.2197  166.4840 C.ar    1  UNL1       -0.0006
     18 C         137.6112  138.6790  167.8951 C.ar    1  UNL1       -0.0043
     19 C         138.5785  139.6323  168.5321 C.ar    1  UNL1       -0.0222
     20 C         138.3596  140.0917  169.9431 C.3     1  UNL1        0.0310
     21 C         139.7647  140.1261  167.7580 C.ar    1  UNL1       -0.0081
     22 C         142.2588  140.9188  166.2722 C.3     1  UNL1        0.1161
     23 O         142.6392  139.6783  167.0248 O.3     1  UNL1       -0.3820
     24 H         143.3852  139.8733  167.6133 H       1  UNL1        0.2107
     25 C         140.1787  144.0629  165.0319 C.ar    1  UNL1        0.2271
     26 C         140.5592  142.8224  165.7845 C.ar    1  UNL1        0.0559
     27 C         141.8783  142.1593  165.5196 C.ar    1  UNL1        0.0117
     28 C         142.8169  142.7367  164.5020 C.ar    1  UNL1        0.0559
     29 C         142.4365  143.9772  163.7494 C.ar    1  UNL1        0.2272
     30 N         141.1174  144.6403  164.0143 N.ar    1  UNL1       -0.1767
     31 O         143.3752  144.5546  162.7318 O.3     1  UNL1       -0.4561
     32 C         144.5042  143.7245  162.1967 C.3     1  UNL1        0.2542
     33 O         138.8595  144.7260  165.2969 O.3     1  UNL1       -0.4602
     34 C         137.7121  143.2881  163.4623 C.3     1  UNL1        0.0512
     35 C         137.6130  144.2023  164.6473 C.3     1  UNL1        0.2072
     36 C         143.3478  141.6771  166.9714 C.3     1  UNL1        0.0491
     37 C         143.0179  142.5554  168.1417 C.3     1  UNL1        0.0750
     38 N         142.4401  141.9564  169.3897 N.3     1  UNL1       -0.2702
     39 C         141.1790  142.5176  169.9767 C.3     1  UNL1        0.0897
     40 C         143.1234  140.7962  170.0506 C.3     1  UNL1        0.0897
@<TRIPOS>BOND
     1    34    35    1
     2    35    33    1
     3    33    25    1
     4    25    26   ar
     5    26    27   ar
     6    27    22    1
     7    22    23    1
     8    22    36    1
     9    36    37    1
    10    37    38    1
    11    38    39    1
    12    38    40    1
    13    22     1    1
    14     1    15    1
    15    15    16   ar
    16    16    17   ar
    17    17    18   ar
    18    18    19   ar
    19    19    20    1
    20    19    21   ar
    21     1     2    1
    22     2     3   ar
    23     3     4   ar
    24     4     5   ar
    25     5     6   ar
    26     6     7    1
    27     6     8   ar
    28     8     9   ar
    29     9    10   ar
    30    10    11   ar
    31    11    12   ar
    32    12    13    1
    33    13    14    1
    34    27    28   ar
    35    28    29   ar
    36    29    31    1
    37    31    32    1
    38    29    30   ar
    39    30    25   ar
    40    21    15   ar
    41    12     2   ar
    42    10     4   ar
    43    23    24    1
@<TRIPOS>MOLECULE
*****
 40 43 0 0 0
SMALL
GASTEIGER

@<TRIPOS>ATOM
      1 C         142.4408  140.0246  164.4884 C.3     1  UNL1        0.0776
      2 C         142.3505  140.0510  165.9855 C.ar    1  UNL1        0.0373
      3 C         141.4882  141.0718  166.6670 C.ar    1  UNL1        0.0023
      4 C         141.3979  141.0982  168.1641 C.ar    1  UNL1        0.0181
      5 C         140.5356  142.1190  168.8455 C.ar    1  UNL1        0.0082
      6 C         140.4454  142.1454  170.3426 C.ar    1  UNL1        0.0347
      7 BR        139.5830  143.1662  171.0241 Br      1  UNL1       -0.0490
      8 C         141.2174  141.1510  171.1581 C.ar    1  UNL1        0.0082
      9 C         142.0797  140.1302  170.4767 C.ar    1  UNL1        0.0197
     10 C         142.1699  140.1038  168.9797 C.ar    1  UNL1        0.0844
     11 N         143.0323  139.0830  168.2981 N.ar    1  UNL1       -0.2119
     12 C         143.1225  139.0566  166.8011 C.ar    1  UNL1        0.2211
     13 O         143.9848  138.0358  166.1196 O.3     1  UNL1       -0.4563
     14 C         145.3996  138.3735  165.7531 C.3     1  UNL1        0.2542
     15 C         143.1998  141.0963  163.7638 C.ar    1  UNL1       -0.0160
     16 C         144.3000  140.7248  162.8143 C.ar    1  UNL1       -0.0039
     17 C         145.0591  141.7966  162.0897 C.ar    1  UNL1       -0.0006
     18 C         144.7179  143.2399  162.3145 C.ar    1  UNL1       -0.0043
     19 C         143.6177  143.6114  163.2641 C.ar    1  UNL1       -0.0222
     20 C         143.2765  145.0547  163.4889 C.3     1  UNL1        0.0310
     21 C         142.8586  142.5396  163.9887 C.ar    1  UNL1       -0.0081
     22 C         141.7720  138.9263  163.7160 C.3     1  UNL1        0.1161
     23 O         143.1145  138.3680  163.3474 O.3     1  UNL1       -0.3820
     24 H         142.9962  137.5781  162.7971 H       1  UNL1        0.2107
     25 C         138.5749  141.2769  163.7714 C.ar    1  UNL1        0.2271
     26 C         139.9175  140.7186  163.4028 C.ar    1  UNL1        0.0559
     27 C         140.4294  139.4846  164.0846 C.ar    1  UNL1        0.0117
     28 C         139.5989  138.8089  165.1351 C.ar    1  UNL1        0.0559
     29 C         138.2564  139.3672  165.5037 C.ar    1  UNL1        0.2272
     30 N         137.7444  140.6012  164.8218 N.ar    1  UNL1       -0.1767
     31 O         137.4258  138.6914  166.5543 O.3     1  UNL1       -0.4561
     32 C         137.5323  137.2088  166.7556 C.3     1  UNL1        0.2542
     33 O         138.0629  142.5110  163.0894 O.3     1  UNL1       -0.4602
     34 C         139.2996  144.0901  164.7408 C.3     1  UNL1        0.0512
     35 C         138.1908  143.8465  163.7604 C.3     1  UNL1        0.2072
     36 C         141.1032  137.8281  162.9437 C.3     1  UNL1        0.0491
     37 C         140.7991  138.0136  161.4866 C.3     1  UNL1        0.0750
     38 N         141.8349  138.5983  160.5727 N.3     1  UNL1       -0.2702
     39 C         142.9217  137.7271  160.0162 C.3     1  UNL1        0.0897
     40 C         141.7840  140.0542  160.2154 C.3     1  UNL1        0.0897
@<TRIPOS>BOND
     1    34    35    1
     2    35    33    1
     3    33    25    1
     4    25    26   ar
     5    26    27   ar
     6    27    22    1
     7    22    23    1
     8    22    36    1
     9    36    37    1
    10    37    38    1
    11    38    39    1
    12    38    40    1
    13    22     1    1
    14     1    15    1
    15    15    16   ar
    16    16    17   ar
    17    17    18   ar
    18    18    19   ar
    19    19    20    1
    20    19    21   ar
    21     1     2    1
    22     2     3   ar
    23     3     4   ar
    24     4     5   ar
    25     5     6   ar
    26     6     7    1
    27     6     8   ar
    28     8     9   ar
    29     9    10   ar
    30    10    11   ar
    31    11    12   ar
    32    12    13    1
    33    13    14    1
    34    27    28   ar
    35    28    29   ar
    36    29    31    1
    37    31    32    1
    38    29    30   ar
    39    30    25   ar
    40    21    15   ar
    41    12     2   ar
    42    10     4   ar
    43    23    24    1
@<TRIPOS>MOLECULE
*****
 40 43 0 0 0
SMALL
GASTEIGER

@<TRIPOS>ATOM
      1 C         140.5837  141.2147  161.7436 C.3     1  UNL1        0.0776
      2 C         140.2335  140.8446  163.1544 C.ar    1  UNL1        0.0373
      3 C         141.2166  141.0905  164.2603 C.ar    1  UNL1        0.0023
      4 C         140.8663  140.7204  165.6712 C.ar    1  UNL1        0.0181
      5 C         141.8494  140.9663  166.7771 C.ar    1  UNL1        0.0082
      6 C         141.4992  140.5962  168.1879 C.ar    1  UNL1        0.0347
      7 BR        142.4823  140.8421  169.2939 Br      1  UNL1       -0.0490
      8 C         140.1659  139.9803  168.4928 C.ar    1  UNL1        0.0082
      9 C         139.1828  139.7345  167.3869 C.ar    1  UNL1        0.0197
     10 C         139.5330  140.1045  165.9761 C.ar    1  UNL1        0.0844
     11 N         138.5500  139.8587  164.8701 N.ar    1  UNL1       -0.2119
     12 C         138.9002  140.2287  163.4593 C.ar    1  UNL1        0.2211
     13 O         137.9171  139.9829  162.3533 O.3     1  UNL1       -0.4563
     14 C         137.7318  138.5975  161.8088 C.3     1  UNL1        0.2542
     15 C         140.9872  140.1500  160.7671 C.ar    1  UNL1       -0.0160
     16 C         142.1452  139.2483  161.0766 C.ar    1  UNL1       -0.0039
     17 C         142.5487  138.1835  160.1001 C.ar    1  UNL1       -0.0006
     18 C         141.7941  138.0206  158.8140 C.ar    1  UNL1       -0.0043
     19 C         140.6360  138.9223  158.5044 C.ar    1  UNL1       -0.0222
     20 C         139.8815  138.7593  157.2183 C.3     1  UNL1        0.0310
     21 C         140.2326  139.9870  159.4809 C.ar    1  UNL1       -0.0081
     22 C         140.5305  142.6495  161.3093 C.3     1  UNL1        0.1161
     23 O         139.0472  142.6620  161.5327 O.3     1  UNL1       -0.3820
     24 H         138.6951  143.5395  161.3161 H       1  UNL1        0.2107
     25 C         144.4317  142.5919  162.0350 C.ar    1  UNL1        0.2271
     26 C         142.9485  142.6044  162.2584 C.ar    1  UNL1        0.0559
     27 C         142.0137  142.6369  161.0859 C.ar    1  UNL1        0.0117
     28 C         142.5620  142.6568  159.6899 C.ar    1  UNL1        0.0559
     29 C         144.0452  142.6442  159.4664 C.ar    1  UNL1        0.2272
     30 N         144.9801  142.6117  160.6390 N.ar    1  UNL1       -0.1767
     31 O         144.5936  142.6641  158.0703 O.3     1  UNL1       -0.4561
     32 C         144.8994  141.3754  157.3663 C.3     1  UNL1        0.2542
     33 O         145.3666  142.5594  163.2077 O.3     1  UNL1       -0.4602
     34 C         144.8110  140.0550  163.6189 C.3     1  UNL1        0.0512
     35 C         145.6597  141.2600  163.8974 C.3     1  UNL1        0.2072
     36 C         140.4772  144.0842  160.8750 C.3     1  UNL1        0.0491
     37 C         139.9263  145.1281  161.8007 C.3     1  UNL1        0.0750
     38 N         140.2795  145.0996  163.2582 N.3     1  UNL1       -0.2702
     39 C         141.6754  145.4277  163.6983 C.3     1  UNL1        0.0897
     40 C         139.2367  144.7432  164.2758 C.3     1  UNL1        0.0897
@<TRIPOS>BOND
     1    34    35    1
     2    35    33    1
     3    33    25    1
     4    25    26   ar
     5    26    27   ar
     6    27    22    1
     7    22    23    1
     8    22    36    1
     9    36    37    1
    10    37    38    1
    11    38    39    1
    12    38    40    1
    13    22     1    1
    14     1    15    1
    15    15    16   ar
    16    16    17   ar
    17    17    18   ar
    18    18    19   ar
    19    19    20    1
    20    19    21   ar
    21     1     2    1
    22     2     3   ar
    23     3     4   ar
    24     4     5   ar
    25     5     6   ar
    26     6     7    1
    27     6     8   ar
    28     8     9   ar
    29     9    10   ar
    30    10    11   ar
    31    11    12   ar
    32    12    13    1
    33    13    14    1
    34    27    28   ar
    35    28    29   ar
    36    29    31    1
    37    31    32    1
    38    29    30   ar
    39    30    25   ar
    40    21    15   ar
    41    12     2   ar
    42    10     4   ar
    43    23    24    1
