@<TRIPOS>MOLECULE
*****
 39 44 0 0 0
SMALL
GASTEIGER

@<TRIPOS>ATOM
      1 C         142.6940  135.6792  157.3922 C.ar    1  UNL1        0.2400
      2 N         142.1684  135.2982  156.0399 N.ar    1  UNL1       -0.2090
      3 C         141.5113  136.3305  155.1725 C.ar    1  UNL1        0.1037
      4 C         141.2174  137.8332  155.3529 C.ar    1  UNL1        0.0400
      5 C         141.9127  137.2175  156.5308 C.ar    1  UNL1        0.0237
      6 C         142.5623  137.0927  157.8770 C.ar    1  UNL1        0.1179
      7 N         143.0879  137.4737  159.2292 N.pl3   1  UNL1       -0.2104
      8 S         143.4260  138.3147  160.4244 S.O2    1  UNL1        0.0737
      9 O         144.1000  138.0216  161.7319 O.2     1  UNL1       -0.1499
     10 O         143.8501  136.8829  160.5663 O.2     1  UNL1       -0.1499
     11 C         143.5358  139.5143  161.3183 C.ar    1  UNL1        0.1253
     12 C         144.1854  139.3895  162.6645 C.ar    1  UNL1        0.0202
     13 C         144.2952  140.5890  163.5584 C.ar    1  UNL1        0.0015
     14 C         143.7555  141.9134  163.1060 C.ar    1  UNL1        0.0046
     15 C         143.1059  142.0382  161.7598 C.ar    1  UNL1        0.0547
     16 C         142.9960  140.8387  160.8659 C.ar    1  UNL1        0.0247
     17 C         142.5071  143.7088  161.3680 C.2     1  UNL1        0.2461
     18 O         142.8452  144.5498  162.5631 O.2     1  UNL1       -0.2701
     19 N         141.8499  144.7410  160.5005 N.am    1  UNL1       -0.2969
     20 C         141.1546  145.3568  159.3227 C.3     1  UNL1        0.1181
     21 C         140.5050  145.4816  157.9764 C.ar    1  UNL1        0.0167
     22 C         139.8610  146.6586  157.2168 C.ar    1  UNL1        0.0962
     23 N         139.2114  146.7834  155.8705 N.ar    1  UNL1       -0.2425
     24 C         139.1016  145.5839  154.9766 C.ar    1  UNL1        0.1004
     25 C         139.6414  144.2595  155.4290 C.ar    1  UNL1        0.0382
     26 C         139.9794  145.1006  156.6241 C.ar    1  UNL1        0.0020
     27 C         139.5315  143.0600  154.5351 C.ar    1  UNL1        0.1050
     28 C         138.8414  143.8544  153.4661 C.ar    1  UNL1        0.1197
     29 N         138.5465  142.9319  152.3206 N.ar    1  UNL1       -0.2234
     30 C         139.0544  141.5675  152.6816 C.ar    1  UNL1        0.1639
     31 C         139.3605  139.7612  152.3621 C.ar    1  UNL1        0.0404
     32 C         139.9912  138.6293  153.1177 C.ar    1  UNL1        0.0240
     33 C         140.5602  138.8655  154.4855 C.ar    1  UNL1        0.1030
     34 N         140.0204  140.1899  154.0331 N.ar    1  UNL1       -0.1637
     35 N         139.6632  141.6466  154.0503 N.ar    1  UNL1       -0.2107
     36 H         143.4422  136.6045  159.5262 H       1  UNL1        0.1739
     37 H         141.9220  145.5283  161.0872 H       1  UNL1        0.1501
     38 C         144.0990  133.5073  157.6337 C.3     1  UNL1        0.2543
     39 O         143.3512  134.6470  158.2596 O.3     1  UNL1       -0.4553
@<TRIPOS>BOND
     1    38    39    1
     2    39     1    1
     3     1     2   ar
     4     2     3   ar
     5     3     4   ar
     6     4     5   ar
     7     5     6   ar
     8     6     7    1
     9     7     8    1
    10     8     9    2
    11     8    10    2
    12     8    11    1
    13    11    12   ar
    14    12    13   ar
    15    13    14   ar
    16    14    15   ar
    17    15    16   ar
    18    15    17    1
    19    17    18    2
    20    17    19   am
    21    19    20    1
    22    20    21    1
    23    21    22   ar
    24    22    23   ar
    25    23    24   ar
    26    24    25   ar
    27    25    26   ar
    28    25    27    1
    29    27    28   ar
    30    28    29   ar
    31    29    30   ar
    32    30    31   ar
    33    31    32   ar
    34    32    33   ar
    35    33    34   ar
    36    34    35   ar
    37     6     1   ar
    38    16    11   ar
    39    26    21   ar
    40    35    27   ar
    41    33     4    1
    42    35    30   ar
    43     7    36    1
    44    19    37    1
@<TRIPOS>MOLECULE
*****
 39 44 0 0 0
SMALL
GASTEIGER

@<TRIPOS>ATOM
      1 C         140.1793  145.7176  155.0812 C.ar    1  UNL1        0.2400
      2 N         139.7892  146.8326  156.0056 N.ar    1  UNL1       -0.2090
      3 C         139.8308  146.6250  157.4905 C.ar    1  UNL1        0.1037
      4 C         140.2148  145.4268  158.3816 C.ar    1  UNL1        0.0400
      5 C         140.3379  145.1405  156.9143 C.ar    1  UNL1        0.0237
      6 C         140.6110  144.3950  155.6418 C.ar    1  UNL1        0.1179
      7 N         141.0011  143.2800  154.7173 N.pl3   1  UNL1       -0.2104
      8 S         141.4612  141.9300  154.2526 S.O2    1  UNL1        0.0737
      9 O         141.6871  141.3300  152.8966 O.2     1  UNL1       -0.1499
     10 O         141.1656  142.8768  153.1274 O.2     1  UNL1       -0.1499
     11 C         141.9357  140.5079  154.3036 C.ar    1  UNL1        0.1253
     12 C         142.2088  139.7623  153.0310 C.ar    1  UNL1        0.0202
     13 C         142.6833  138.3403  153.0821 C.ar    1  UNL1        0.0015
     14 C         142.8847  137.6638  154.4056 C.ar    1  UNL1        0.0046
     15 C         142.6116  138.4094  155.6782 C.ar    1  UNL1        0.0547
     16 C         142.1371  139.8315  155.6272 C.ar    1  UNL1        0.0247
     17 C         142.9057  137.4452  157.1903 C.2     1  UNL1        0.2461
     18 O         143.3658  136.0952  156.7256 O.2     1  UNL1       -0.2701
     19 N         142.9474  137.2376  158.6753 N.am    1  UNL1       -0.2969
     20 C         142.8242  137.5238  160.1426 C.3     1  UNL1        0.1181
     21 C         142.5511  138.2695  161.4152 C.ar    1  UNL1        0.0167
     22 C         142.6500  137.8903  162.9063 C.ar    1  UNL1        0.0962
     23 N         142.3769  138.6360  164.1789 N.ar    1  UNL1       -0.2425
     24 C         141.9024  140.0580  164.1279 C.ar    1  UNL1        0.1004
     25 C         141.7009  140.7345  162.8043 C.ar    1  UNL1        0.0382
     26 C         142.1610  139.3845  162.3396 C.ar    1  UNL1        0.0020
     27 C         141.2264  142.1565  162.7533 C.ar    1  UNL1        0.1050
     28 C         141.1685  142.2460  164.2495 C.ar    1  UNL1        0.1197
     29 N         140.7010  143.6241  164.6137 N.ar    1  UNL1       -0.2234
     30 C         140.4699  144.3861  163.3425 C.ar    1  UNL1        0.1639
     31 C         139.9854  145.8901  162.3619 C.ar    1  UNL1        0.0404
     32 C         139.8960  146.2391  160.9058 C.ar    1  UNL1        0.0240
     33 C         140.2564  145.2192  159.8666 C.ar    1  UNL1        0.1030
     34 N         140.4578  144.5428  161.1902 N.ar    1  UNL1       -0.1637
     35 N         140.7947  143.4791  162.1927 N.ar    1  UNL1       -0.2107
     36 H         140.8689  143.7239  153.8486 H       1  UNL1        0.1739
     37 H         143.2588  136.3043  158.7088 H       1  UNL1        0.1501
     38 C         141.3295  146.4936  152.8846 C.3     1  UNL1        0.2543
     39 O         140.1376  145.9252  153.5962 O.3     1  UNL1       -0.4553
@<TRIPOS>BOND
     1    38    39    1
     2    39     1    1
     3     1     2   ar
     4     2     3   ar
     5     3     4   ar
     6     4     5   ar
     7     5     6   ar
     8     6     7    1
     9     7     8    1
    10     8     9    2
    11     8    10    2
    12     8    11    1
    13    11    12   ar
    14    12    13   ar
    15    13    14   ar
    16    14    15   ar
    17    15    16   ar
    18    15    17    1
    19    17    18    2
    20    17    19   am
    21    19    20    1
    22    20    21    1
    23    21    22   ar
    24    22    23   ar
    25    23    24   ar
    26    24    25   ar
    27    25    26   ar
    28    25    27    1
    29    27    28   ar
    30    28    29   ar
    31    29    30   ar
    32    30    31   ar
    33    31    32   ar
    34    32    33   ar
    35    33    34   ar
    36    34    35   ar
    37     6     1   ar
    38    16    11   ar
    39    26    21   ar
    40    35    27   ar
    41    33     4    1
    42    35    30   ar
    43     7    36    1
    44    19    37    1
@<TRIPOS>MOLECULE
*****
 39 44 0 0 0
SMALL
GASTEIGER

@<TRIPOS>ATOM
      1 C         139.1995  146.0669  156.5570 C.ar    1  UNL1        0.2400
      2 N         138.3691  146.0652  155.3078 N.ar    1  UNL1       -0.2090
      3 C         138.2013  144.7996  154.5205 C.ar    1  UNL1        0.1037
      4 C         138.7270  143.3617  154.7029 C.ar    1  UNL1        0.0400
      5 C         139.1795  144.3018  155.7807 C.ar    1  UNL1        0.0237
      6 C         139.8621  144.8029  157.0188 C.ar    1  UNL1        0.1179
      7 N         140.6926  144.8046  158.2679 N.pl3   1  UNL1       -0.2104
      8 S         141.5706  144.3066  159.3774 S.O2    1  UNL1        0.0737
      9 O         142.1845  144.9635  160.5781 O.2     1  UNL1       -0.1499
     10 O         141.2372  145.7645  159.4925 O.2     1  UNL1       -0.1499
     11 C         142.3904  143.3690  160.2135 C.ar    1  UNL1        0.1253
     12 C         143.0730  143.8701  161.4516 C.ar    1  UNL1        0.0202
     13 C         143.8928  142.9326  162.2877 C.ar    1  UNL1        0.0015
     14 C         144.0299  141.4940  161.8856 C.ar    1  UNL1        0.0046
     15 C         143.3473  140.9929  160.6475 C.ar    1  UNL1        0.0547
     16 C         142.5275  141.9304  159.8115 C.ar    1  UNL1        0.0247
     17 C         143.6157  139.2284  160.3051 C.2     1  UNL1        0.2461
     18 O         144.4937  138.7304  161.4146 O.2     1  UNL1       -0.2701
     19 N         143.4478  137.9628  159.5176 N.am    1  UNL1       -0.2969
     20 C         142.9953  137.0227  158.4400 C.3     1  UNL1        0.1181
     21 C         142.3126  136.5216  157.2018 C.ar    1  UNL1        0.0167
     22 C         142.2437  135.1429  156.5153 C.ar    1  UNL1        0.0962
     23 N         141.5610  134.6418  155.2771 N.ar    1  UNL1       -0.2425
     24 C         140.7412  135.5794  154.4411 C.ar    1  UNL1        0.1004
     25 C         140.6041  137.0180  154.8431 C.ar    1  UNL1        0.0382
     26 C         141.4822  136.5200  155.9527 C.ar    1  UNL1        0.0020
     27 C         139.7844  137.9555  154.0071 C.ar    1  UNL1        0.1050
     28 C         139.4410  136.8690  153.0315 C.ar    1  UNL1        0.1197
     29 N         138.5661  137.4616  151.9668 N.ar    1  UNL1       -0.2234
     30 C         138.3689  138.9142  152.2843 C.ar    1  UNL1        0.1639
     31 C         137.6822  140.6137  151.9705 C.ar    1  UNL1        0.0404
     32 C         137.7619  141.9466  152.6538 C.ar    1  UNL1        0.0240
     33 C         138.5591  142.0961  153.9156 C.ar    1  UNL1        0.1030
     34 N         138.6963  140.6575  153.5136 N.ar    1  UNL1       -0.1637
     35 N         139.1218  139.2195  153.5453 N.ar    1  UNL1       -0.2107
     36 H         140.6026  145.7488  158.5318 H       1  UNL1        0.1739
     37 H         143.9858  137.3475  160.0664 H       1  UNL1        0.1501
     38 C         138.7302  148.6035  156.8661 C.3     1  UNL1        0.2543
     39 O         139.3673  147.3325  157.3443 O.3     1  UNL1       -0.4553
@<TRIPOS>BOND
     1    38    39    1
     2    39     1    1
     3     1     2   ar
     4     2     3   ar
     5     3     4   ar
     6     4     5   ar
     7     5     6   ar
     8     6     7    1
     9     7     8    1
    10     8     9    2
    11     8    10    2
    12     8    11    1
    13    11    12   ar
    14    12    13   ar
    15    13    14   ar
    16    14    15   ar
    17    15    16   ar
    18    15    17    1
    19    17    18    2
    20    17    19   am
    21    19    20    1
    22    20    21    1
    23    21    22   ar
    24    22    23   ar
    25    23    24   ar
    26    24    25   ar
    27    25    26   ar
    28    25    27    1
    29    27    28   ar
    30    28    29   ar
    31    29    30   ar
    32    30    31   ar
    33    31    32   ar
    34    32    33   ar
    35    33    34   ar
    36    34    35   ar
    37     6     1   ar
    38    16    11   ar
    39    26    21   ar
    40    35    27   ar
    41    33     4    1
    42    35    30   ar
    43     7    36    1
    44    19    37    1
@<TRIPOS>MOLECULE
*****
 39 44 0 0 0
SMALL
GASTEIGER

@<TRIPOS>ATOM
      1 C         139.2466  147.0519  156.8419 C.ar    1  UNL1        0.2400
      2 N         139.1908  147.0128  155.3434 N.ar    1  UNL1       -0.2090
      3 C         139.5875  145.7658  154.6104 C.ar    1  UNL1        0.1037
      4 C         140.0867  144.3812  155.0697 C.ar    1  UNL1        0.0400
      5 C         139.8143  145.3223  156.2056 C.ar    1  UNL1        0.0237
      6 C         139.6991  145.8438  157.6073 C.ar    1  UNL1        0.1179
      7 N         139.7549  145.8829  159.1058 N.pl3   1  UNL1       -0.2104
      8 S         139.9750  145.4347  160.5202 S.O2    1  UNL1        0.0737
      9 O         139.8049  146.1057  161.8509 O.2     1  UNL1       -0.1499
     10 O         139.4823  146.8476  160.4145 O.2     1  UNL1       -0.1499
     11 C         140.3329  144.5534  161.6802 C.ar    1  UNL1        0.1253
     12 C         140.2176  145.0749  163.0818 C.ar    1  UNL1        0.0202
     13 C         140.5755  144.1937  164.2417 C.ar    1  UNL1        0.0015
     14 C         141.0486  142.7909  163.9998 C.ar    1  UNL1        0.0046
     15 C         141.1638  142.2694  162.5982 C.ar    1  UNL1        0.0547
     16 C         140.8060  143.1507  161.4383 C.ar    1  UNL1        0.0247
     17 C         141.7509  140.5534  162.4823 C.2     1  UNL1        0.2461
     18 O         141.9710  140.1053  163.8968 O.2     1  UNL1       -0.2701
     19 N         142.1475  139.3064  161.7492 N.am    1  UNL1       -0.2969
     20 C         142.4199  138.3653  160.6134 C.3     1  UNL1        0.1181
     21 C         142.5352  137.8438  159.2116 C.ar    1  UNL1        0.0167
     22 C         142.9750  136.4904  158.6185 C.ar    1  UNL1        0.0962
     23 N         143.0902  135.9689  157.2168 N.ar    1  UNL1       -0.2425
     24 C         142.7324  136.8501  156.0569 C.ar    1  UNL1        0.1004
     25 C         142.2593  138.2529  156.2987 C.ar    1  UNL1        0.0382
     26 C         142.4794  137.8047  157.7132 C.ar    1  UNL1        0.0020
     27 C         141.9014  139.1341  155.1389 C.ar    1  UNL1        0.1050
     28 C         142.2284  138.0546  154.1501 C.ar    1  UNL1        0.1197
     29 N         141.9780  138.5955  152.7735 N.ar    1  UNL1       -0.2234
     30 C         141.4963  140.0093  152.9116 C.ar    1  UNL1        0.1639
     31 C         140.9018  141.6428  152.2508 C.ar    1  UNL1        0.0404
     32 C         140.4775  142.9518  152.8478 C.ar    1  UNL1        0.0240
     33 C         140.4834  143.1341  154.3367 C.ar    1  UNL1        0.1030
     34 N         140.9565  141.7314  154.0949 N.ar    1  UNL1       -0.1637
     35 N         141.4490  140.3422  154.3735 N.ar    1  UNL1       -0.2107
     36 H         139.4444  146.8035  159.2645 H       1  UNL1        0.1739
     37 H         142.3824  138.7280  162.5105 H       1  UNL1        0.1501
     38 C         138.4744  149.5323  156.8083 C.3     1  UNL1        0.2543
     39 O         138.8500  148.2990  157.5749 O.3     1  UNL1       -0.4553
@<TRIPOS>BOND
     1    38    39    1
     2    39     1    1
     3     1     2   ar
     4     2     3   ar
     5     3     4   ar
     6     4     5   ar
     7     5     6   ar
     8     6     7    1
     9     7     8    1
    10     8     9    2
    11     8    10    2
    12     8    11    1
    13    11    12   ar
    14    12    13   ar
    15    13    14   ar
    16    14    15   ar
    17    15    16   ar
    18    15    17    1
    19    17    18    2
    20    17    19   am
    21    19    20    1
    22    20    21    1
    23    21    22   ar
    24    22    23   ar
    25    23    24   ar
    26    24    25   ar
    27    25    26   ar
    28    25    27    1
    29    27    28   ar
    30    28    29   ar
    31    29    30   ar
    32    30    31   ar
    33    31    32   ar
    34    32    33   ar
    35    33    34   ar
    36    34    35   ar
    37     6     1   ar
    38    16    11   ar
    39    26    21   ar
    40    35    27   ar
    41    33     4    1
    42    35    30   ar
    43     7    36    1
    44    19    37    1
@<TRIPOS>MOLECULE
*****
 39 44 0 0 0
SMALL
GASTEIGER

@<TRIPOS>ATOM
      1 C         142.8215  137.2415  155.4788 C.ar    1  UNL1        0.2400
      2 N         143.0588  136.2439  156.5736 N.ar    1  UNL1       -0.2090
      3 C         142.8782  136.6466  158.0072 C.ar    1  UNL1        0.1037
      4 C         142.4681  137.9653  158.6929 C.ar    1  UNL1        0.0400
      5 C         142.5085  138.0604  157.1964 C.ar    1  UNL1        0.0237
      6 C         142.4037  138.6417  155.8176 C.ar    1  UNL1        0.1179
      7 N         142.1664  139.6393  154.7228 N.pl3   1  UNL1       -0.2104
      8 S         141.8253  140.9327  154.0441 S.O2    1  UNL1        0.0737
      9 O         141.7683  141.3570  152.6065 O.2     1  UNL1       -0.1499
     10 O         142.1840  139.8356  153.0861 O.2     1  UNL1       -0.1499
     11 C         141.4214  142.3660  153.8632 C.ar    1  UNL1        0.1253
     12 C         141.3167  142.9474  152.4844 C.ar    1  UNL1        0.0202
     13 C         140.9128  144.3806  152.3036 C.ar    1  UNL1        0.0015
     14 C         140.6138  145.2324  153.5015 C.ar    1  UNL1        0.0046
     15 C         140.7186  144.6511  154.8802 C.ar    1  UNL1        0.0547
     16 C         141.1224  143.2178  155.0611 C.ar    1  UNL1        0.0247
     17 C         140.3231  145.8163  156.2176 C.2     1  UNL1        0.2461
     18 O         139.9820  147.1098  155.5388 O.2     1  UNL1       -0.2701
     19 N         140.1425  146.2189  157.6512 N.am    1  UNL1       -0.2969
     20 C         140.1022  146.1239  159.1476 C.3     1  UNL1        0.1181
     21 C         140.2070  145.5424  160.5264 C.ar    1  UNL1        0.0167
     22 C         139.9777  146.1180  161.9382 C.ar    1  UNL1        0.0962
     23 N         140.0825  145.5365  163.3170 N.ar    1  UNL1       -0.2425
     24 C         140.4863  144.1033  163.4979 C.ar    1  UNL1        0.1004
     25 C         140.7854  143.2515  162.3000 C.ar    1  UNL1        0.0382
     26 C         140.4443  144.5449  161.6212 C.ar    1  UNL1        0.0020
     27 C         141.1892  141.8182  162.4808 C.ar    1  UNL1        0.1050
     28 C         141.0912  141.9243  163.9739 C.ar    1  UNL1        0.1197
     29 N         141.4485  140.5895  164.5578 N.ar    1  UNL1       -0.2234
     30 C         141.7673  139.6587  163.4257 C.ar    1  UNL1        0.1639
     31 C         142.2707  138.0215  162.7013 C.ar    1  UNL1        0.0404
     32 C         142.4886  137.4808  161.3192 C.ar    1  UNL1        0.0240
     33 C         142.2876  138.3679  160.1264 C.ar    1  UNL1        0.1030
     34 N         141.9885  139.2197  161.3243 N.ar    1  UNL1       -0.1637
     35 N         141.6071  140.4180  162.1420 N.ar    1  UNL1       -0.2107
     36 H         142.3627  139.0802  153.9366 H       1  UNL1        0.1739
     37 H         139.8775  147.1596  157.5325 H       1  UNL1        0.1501
     38 C         141.8813  136.1685  153.3075 C.3     1  UNL1        0.2543
     39 O         143.0021  136.8388  154.0452 O.3     1  UNL1       -0.4553
@<TRIPOS>BOND
     1    38    39    1
     2    39     1    1
     3     1     2   ar
     4     2     3   ar
     5     3     4   ar
     6     4     5   ar
     7     5     6   ar
     8     6     7    1
     9     7     8    1
    10     8     9    2
    11     8    10    2
    12     8    11    1
    13    11    12   ar
    14    12    13   ar
    15    13    14   ar
    16    14    15   ar
    17    15    16   ar
    18    15    17    1
    19    17    18    2
    20    17    19   am
    21    19    20    1
    22    20    21    1
    23    21    22   ar
    24    22    23   ar
    25    23    24   ar
    26    24    25   ar
    27    25    26   ar
    28    25    27    1
    29    27    28   ar
    30    28    29   ar
    31    29    30   ar
    32    30    31   ar
    33    31    32   ar
    34    32    33   ar
    35    33    34   ar
    36    34    35   ar
    37     6     1   ar
    38    16    11   ar
    39    26    21   ar
    40    35    27   ar
    41    33     4    1
    42    35    30   ar
    43     7    36    1
    44    19    37    1
@<TRIPOS>MOLECULE
*****
 39 44 0 0 0
SMALL
GASTEIGER

@<TRIPOS>ATOM
      1 C         139.9119  145.3664  162.3830 C.ar    1  UNL1        0.2400
      2 N         139.5278  146.6363  161.6830 N.ar    1  UNL1       -0.2090
      3 C         139.6209  146.7267  160.1887 C.ar    1  UNL1        0.1037
      4 C         140.0582  145.7337  159.0932 C.ar    1  UNL1        0.0400
      5 C         140.1408  145.1651  160.4788 C.ar    1  UNL1        0.0237
      6 C         140.3891  144.1869  161.5885 C.ar    1  UNL1        0.1179
      7 N         140.7731  142.9171  162.2885 N.pl3   1  UNL1       -0.2104
      8 S         141.2467  141.5088  162.4943 S.O2    1  UNL1        0.0737
      9 O         141.4421  140.6561  163.7128 O.2     1  UNL1       -0.1499
     10 O         140.8956  142.2103  163.7728 O.2     1  UNL1       -0.1499
     11 C         141.7525  140.1317  162.1811 C.ar    1  UNL1        0.1253
     12 C         142.0008  139.1536  163.2908 C.ar    1  UNL1        0.0202
     13 C         142.5067  137.7766  162.9775 C.ar    1  UNL1        0.0015
     14 C         142.7642  137.3779  161.5546 C.ar    1  UNL1        0.0046
     15 C         142.5160  138.3561  160.4449 C.ar    1  UNL1        0.0547
     16 C         142.0101  139.7330  160.7582 C.ar    1  UNL1        0.0247
     17 C         142.8782  137.7138  158.7839 C.2     1  UNL1        0.2461
     18 O         143.3518  136.3054  158.9897 O.2     1  UNL1       -0.2701
     19 N         142.9713  137.8042  157.2896 N.am    1  UNL1       -0.2969
     20 C         142.8888  138.3727  155.9040 C.3     1  UNL1        0.1181
     21 C         142.6405  139.3510  154.7942 C.ar    1  UNL1        0.0167
     22 C         142.7946  139.2753  153.2621 C.ar    1  UNL1        0.0962
     23 N         142.5463  140.2535  152.1524 N.ar    1  UNL1       -0.2425
     24 C         142.0404  141.6305  152.4656 C.ar    1  UNL1        0.1004
     25 C         141.7829  142.0292  153.8885 C.ar    1  UNL1        0.0382
     26 C         142.2564  140.6209  154.0943 C.ar    1  UNL1        0.0020
     27 C         141.2770  143.4061  154.2017 C.ar    1  UNL1        0.1050
     28 C         141.2647  143.7885  152.7513 C.ar    1  UNL1        0.1197
     29 N         140.7799  145.2044  152.6494 N.ar    1  UNL1       -0.2234
     30 C         140.4926  145.6970  154.0367 C.ar    1  UNL1        0.1639
     31 C         139.9455  146.9706  155.2765 C.ar    1  UNL1        0.0404
     32 C         139.8025  147.0238  156.7687 C.ar    1  UNL1        0.0240
     33 C         140.1513  145.8241  157.5989 C.ar    1  UNL1        0.1030
     34 N         140.4089  145.4253  156.1760 N.ar    1  UNL1       -0.1637
     35 N         140.7998  144.5856  154.9962 N.ar    1  UNL1       -0.2107
     36 H         140.6041  143.1788  163.2224 H       1  UNL1        0.1739
     37 H         143.3033  136.9005  157.0840 H       1  UNL1        0.1501
     38 C         138.5905  144.7020  164.5190 C.3     1  UNL1        0.2543
     39 O         139.8188  145.2761  163.8773 O.3     1  UNL1       -0.4553
@<TRIPOS>BOND
     1    38    39    1
     2    39     1    1
     3     1     2   ar
     4     2     3   ar
     5     3     4   ar
     6     4     5   ar
     7     5     6   ar
     8     6     7    1
     9     7     8    1
    10     8     9    2
    11     8    10    2
    12     8    11    1
    13    11    12   ar
    14    12    13   ar
    15    13    14   ar
    16    14    15   ar
    17    15    16   ar
    18    15    17    1
    19    17    18    2
    20    17    19   am
    21    19    20    1
    22    20    21    1
    23    21    22   ar
    24    22    23   ar
    25    23    24   ar
    26    24    25   ar
    27    25    26   ar
    28    25    27    1
    29    27    28   ar
    30    28    29   ar
    31    29    30   ar
    32    30    31   ar
    33    31    32   ar
    34    32    33   ar
    35    33    34   ar
    36    34    35   ar
    37     6     1   ar
    38    16    11   ar
    39    26    21   ar
    40    35    27   ar
    41    33     4    1
    42    35    30   ar
    43     7    36    1
    44    19    37    1
@<TRIPOS>MOLECULE
*****
 39 44 0 0 0
SMALL
GASTEIGER

@<TRIPOS>ATOM
      1 C         142.9772  143.3706  161.7752 C.ar    1  UNL1        0.2400
      2 N         143.6184  142.2613  162.5551 N.ar    1  UNL1       -0.2090
      3 C         143.6713  140.8757  161.9833 C.ar    1  UNL1        0.1037
      4 C         143.1783  140.2570  160.6599 C.ar    1  UNL1        0.0400
      5 C         142.8857  141.7236  160.7763 C.ar    1  UNL1        0.0237
      6 C         142.3889  143.0941  160.4233 C.ar    1  UNL1        0.1179
      7 N         141.7477  144.2034  159.6433 N.pl3   1  UNL1       -0.2104
      8 S         141.0394  144.9175  158.5305 S.O2    1  UNL1        0.0737
      9 O         140.6051  146.3394  158.3319 O.2     1  UNL1       -0.1499
     10 O         141.3852  145.8111  159.6846 O.2     1  UNL1       -0.1499
     11 C         140.3495  145.1504  157.2190 C.ar    1  UNL1        0.1253
     12 C         139.8527  146.5210  156.8659 C.ar    1  UNL1        0.0202
     13 C         139.1629  146.7538  155.5545 C.ar    1  UNL1        0.0015
     14 C         138.9699  145.6162  154.5962 C.ar    1  UNL1        0.0046
     15 C         139.4667  144.2456  154.9492 C.ar    1  UNL1        0.0547
     16 C         140.1565  144.0128  156.2606 C.ar    1  UNL1        0.0247
     17 C         139.1526  142.9839  153.6795 C.2     1  UNL1        0.2461
     18 O         138.4444  143.6980  152.5667 O.2     1  UNL1       -0.2701
     19 N         139.2056  141.5981  153.1077 N.am    1  UNL1       -0.2969
     20 C         139.4982  140.1316  152.9913 C.3     1  UNL1        0.1181
     21 C         139.9950  138.7610  153.3444 C.ar    1  UNL1        0.0167
     22 C         139.9648  137.4034  152.6143 C.ar    1  UNL1        0.0962
     23 N         140.4617  136.0328  152.9674 N.ar    1  UNL1       -0.2425
     24 C         141.1515  135.7999  154.2788 C.ar    1  UNL1        0.1004
     25 C         141.3445  136.9376  155.2372 C.ar    1  UNL1        0.0382
     26 C         140.6363  137.6517  154.1243 C.ar    1  UNL1        0.0020
     27 C         142.0344  136.7047  156.5486 C.ar    1  UNL1        0.1050
     28 C         142.2338  135.2493  156.2451 C.ar    1  UNL1        0.1197
     29 N         142.9453  134.6263  157.4095 N.ar    1  UNL1       -0.2234
     30 C         143.1856  135.6966  158.4325 C.ar    1  UNL1        0.1639
     31 C         143.8188  136.3407  160.0581 C.ar    1  UNL1        0.0404
     32 C         143.8379  137.6706  160.7516 C.ar    1  UNL1        0.0240
     33 C         143.2313  138.8713  160.0880 C.ar    1  UNL1        0.1030
     34 N         143.0383  137.7336  159.1297 N.ar    1  UNL1       -0.1637
     35 N         142.6226  136.9812  157.9005 N.ar    1  UNL1       -0.2107
     36 H         141.8743  144.9501  160.2723 H       1  UNL1        0.1739
     37 H         138.7529  141.7510  152.2470 H       1  UNL1        0.1501
     38 C         141.7531  145.1780  163.1840 C.3     1  UNL1        0.2543
     39 O         142.9242  144.7562  162.3470 O.3     1  UNL1       -0.4553
@<TRIPOS>BOND
     1    38    39    1
     2    39     1    1
     3     1     2   ar
     4     2     3   ar
     5     3     4   ar
     6     4     5   ar
     7     5     6   ar
     8     6     7    1
     9     7     8    1
    10     8     9    2
    11     8    10    2
    12     8    11    1
    13    11    12   ar
    14    12    13   ar
    15    13    14   ar
    16    14    15   ar
    17    15    16   ar
    18    15    17    1
    19    17    18    2
    20    17    19   am
    21    19    20    1
    22    20    21    1
    23    21    22   ar
    24    22    23   ar
    25    23    24   ar
    26    24    25   ar
    27    25    26   ar
    28    25    27    1
    29    27    28   ar
    30    28    29   ar
    31    29    30   ar
    32    30    31   ar
    33    31    32   ar
    34    32    33   ar
    35    33    34   ar
    36    34    35   ar
    37     6     1   ar
    38    16    11   ar
    39    26    21   ar
    40    35    27   ar
    41    33     4    1
    42    35    30   ar
    43     7    36    1
    44    19    37    1
@<TRIPOS>MOLECULE
*****
 39 44 0 0 0
SMALL
GASTEIGER

@<TRIPOS>ATOM
      1 C         140.3265  145.2927  156.1333 C.ar    1  UNL1        0.2400
      2 N         139.8397  145.1285  154.7241 N.ar    1  UNL1       -0.2090
      3 C         139.8779  143.7793  154.0698 C.ar    1  UNL1        0.1037
      4 C         140.3414  142.3866  154.5417 C.ar    1  UNL1        0.0400
      5 C         140.5053  143.4529  155.5839 C.ar    1  UNL1        0.0237
      6 C         140.8515  144.1076  156.8883 C.ar    1  UNL1        0.1179
      7 N         141.3383  144.2717  158.2976 N.pl3   1  UNL1       -0.2104
      8 S         141.9070  143.9255  159.6417 S.O2    1  UNL1        0.0737
      9 O         142.1961  144.7289  160.8750 O.2     1  UNL1       -0.1499
     10 O         141.5541  145.3767  159.5018 O.2     1  UNL1       -0.1499
     11 C         142.4889  143.1108  160.7587 C.ar    1  UNL1        0.1253
     12 C         142.8352  143.7655  162.0631 C.ar    1  UNL1        0.0202
     13 C         143.4171  142.9507  163.1800 C.ar    1  UNL1        0.0015
     14 C         143.6528  141.4813  162.9925 C.ar    1  UNL1        0.0046
     15 C         143.3066  140.8266  161.6881 C.ar    1  UNL1        0.0547
     16 C         142.7246  141.6413  160.5712 C.ar    1  UNL1        0.0247
     17 C         143.6544  139.0438  161.6281 C.2     1  UNL1        0.2461
     18 O         144.2231  138.6976  162.9723 O.2     1  UNL1       -0.2701
     19 N         143.6926  137.6946  160.9737 N.am    1  UNL1       -0.2969
     20 C         143.5287  136.6283  159.9316 C.3     1  UNL1        0.1181
     21 C         143.1825  135.9736  158.6271 C.ar    1  UNL1        0.0167
     22 C         143.2909  134.5261  158.1076 C.ar    1  UNL1        0.0962
     23 N         142.9446  133.8714  156.8031 N.ar    1  UNL1       -0.2425
     24 C         142.3627  134.6862  155.6862 C.ar    1  UNL1        0.1004
     25 C         142.1270  136.1557  155.8737 C.ar    1  UNL1        0.0382
     26 C         142.6956  135.8095  157.2179 C.ar    1  UNL1        0.0020
     27 C         141.5451  136.9704  154.7568 C.ar    1  UNL1        0.1050
     28 C         141.4610  135.7732  153.8570 C.ar    1  UNL1        0.1197
     29 N         140.8840  136.2184  152.5459 N.ar    1  UNL1       -0.2234
     30 C         140.6115  137.6907  152.6354 C.ar    1  UNL1        0.1639
     31 C         140.0253  139.3240  151.9668 C.ar    1  UNL1        0.0404
     32 C         139.9282  140.7259  152.4912 C.ar    1  UNL1        0.0240
     33 C         140.3796  141.0374  153.8874 C.ar    1  UNL1        0.1030
     34 N         140.6153  139.5679  153.6999 N.ar    1  UNL1       -0.1637
     35 N         141.0200  138.1555  154.0018 N.ar    1  UNL1       -0.2107
     36 H         141.1836  145.2362  158.4206 H       1  UNL1        0.1739
     37 H         144.0745  137.1599  161.7068 H       1  UNL1        0.1501
     38 C         139.1751  147.5967  156.4731 C.3     1  UNL1        0.2543
     39 O         140.2883  146.6419  156.7876 O.3     1  UNL1       -0.4553
@<TRIPOS>BOND
     1    38    39    1
     2    39     1    1
     3     1     2   ar
     4     2     3   ar
     5     3     4   ar
     6     4     5   ar
     7     5     6   ar
     8     6     7    1
     9     7     8    1
    10     8     9    2
    11     8    10    2
    12     8    11    1
    13    11    12   ar
    14    12    13   ar
    15    13    14   ar
    16    14    15   ar
    17    15    16   ar
    18    15    17    1
    19    17    18    2
    20    17    19   am
    21    19    20    1
    22    20    21    1
    23    21    22   ar
    24    22    23   ar
    25    23    24   ar
    26    24    25   ar
    27    25    26   ar
    28    25    27    1
    29    27    28   ar
    30    28    29   ar
    31    29    30   ar
    32    30    31   ar
    33    31    32   ar
    34    32    33   ar
    35    33    34   ar
    36    34    35   ar
    37     6     1   ar
    38    16    11   ar
    39    26    21   ar
    40    35    27   ar
    41    33     4    1
    42    35    30   ar
    43     7    36    1
    44    19    37    1
@<TRIPOS>MOLECULE
*****
 39 44 0 0 0
SMALL
GASTEIGER

@<TRIPOS>ATOM
      1 C         142.4719  135.3662  156.4200 C.ar    1  UNL1        0.2400
      2 N         143.2078  134.8573  157.6239 N.ar    1  UNL1       -0.2090
      3 C         143.4074  135.7491  158.8133 C.ar    1  UNL1        0.1037
      4 C         142.9993  137.2024  159.1272 C.ar    1  UNL1        0.0400
      5 C         142.5605  136.7415  157.7689 C.ar    1  UNL1        0.0237
      6 C         141.9354  136.7670  156.4056 C.ar    1  UNL1        0.1179
      7 N         141.1995  137.2758  155.2017 N.pl3   1  UNL1       -0.2104
      8 S         140.4413  138.2068  154.3025 S.O2    1  UNL1        0.0737
      9 O         139.8709  138.0676  152.9222 O.2     1  UNL1       -0.1499
     10 O         140.6783  136.8558  153.6952 O.2     1  UNL1       -0.1499
     11 C         139.7525  139.4475  153.8163 C.ar    1  UNL1        0.1253
     12 C         139.1274  139.4730  152.4530 C.ar    1  UNL1        0.0202
     13 C         138.4387  140.7136  151.9669 C.ar    1  UNL1        0.0015
     14 C         138.3749  141.9287  152.8441 C.ar    1  UNL1        0.0046
     15 C         139.0000  141.9032  154.2073 C.ar    1  UNL1        0.0547
     16 C         139.6888  140.6626  154.6935 C.ar    1  UNL1        0.0247
     17 C         138.8330  143.4552  155.1381 C.2     1  UNL1        0.2461
     18 O         138.0749  144.3861  154.2389 O.2     1  UNL1       -0.2701
     19 N         139.0326  144.3469  156.3276 N.am    1  UNL1       -0.2969
     20 C         139.4714  144.8079  157.6859 C.3     1  UNL1        0.1181
     21 C         140.0965  144.7824  159.0492 C.ar    1  UNL1        0.0167
     22 C         140.2130  145.8238  160.1800 C.ar    1  UNL1        0.0962
     23 N         140.8381  145.7983  161.5434 N.ar    1  UNL1       -0.2425
     24 C         141.5269  144.5577  162.0295 C.ar    1  UNL1        0.1004
     25 C         141.5906  143.3425  161.1524 C.ar    1  UNL1        0.0382
     26 C         140.8325  144.2735  160.2531 C.ar    1  UNL1        0.0020
     27 C         142.2794  142.1019  161.6385 C.ar    1  UNL1        0.1050
     28 C         142.6273  142.7450  162.9482 C.ar    1  UNL1        0.1197
     29 N         143.3788  141.7417  163.7721 N.ar    1  UNL1       -0.2234
     30 C         143.4953  140.4786  162.9716 C.ar    1  UNL1        0.1639
     31 C         144.0356  138.7207  162.6952 C.ar    1  UNL1        0.0404
     32 C         143.9114  137.7219  161.5831 C.ar    1  UNL1        0.0240
     33 C         143.1988  138.0942  160.3166 C.ar    1  UNL1        0.1030
     34 N         143.1351  139.3093  161.1938 N.ar    1  UNL1       -0.1637
     35 N         142.8158  140.7011  161.6529 N.ar    1  UNL1       -0.2107
     36 H         141.2413  136.4783  154.6260 H       1  UNL1        0.1739
     37 H         138.5806  145.1612  156.0085 H       1  UNL1        0.1501
     38 C         141.6302  133.1295  155.4007 C.3     1  UNL1        0.2543
     39 O         142.2723  134.4744  155.2306 O.3     1  UNL1       -0.4553
@<TRIPOS>BOND
     1    38    39    1
     2    39     1    1
     3     1     2   ar
     4     2     3   ar
     5     3     4   ar
     6     4     5   ar
     7     5     6   ar
     8     6     7    1
     9     7     8    1
    10     8     9    2
    11     8    10    2
    12     8    11    1
    13    11    12   ar
    14    12    13   ar
    15    13    14   ar
    16    14    15   ar
    17    15    16   ar
    18    15    17    1
    19    17    18    2
    20    17    19   am
    21    19    20    1
    22    20    21    1
    23    21    22   ar
    24    22    23   ar
    25    23    24   ar
    26    24    25   ar
    27    25    26   ar
    28    25    27    1
    29    27    28   ar
    30    28    29   ar
    31    29    30   ar
    32    30    31   ar
    33    31    32   ar
    34    32    33   ar
    35    33    34   ar
    36    34    35   ar
    37     6     1   ar
    38    16    11   ar
    39    26    21   ar
    40    35    27   ar
    41    33     4    1
    42    35    30   ar
    43     7    36    1
    44    19    37    1
