@<TRIPOS>MOLECULE
*****
 33 37 0 0 0
SMALL
GASTEIGER

@<TRIPOS>ATOM
      1 C         138.8920  140.8468  162.3694 C.2     1  UNL1        0.0866
      2 N         137.5691  141.1125  161.7142 N.2     1  UNL1       -0.1523
      3 N         137.5995  140.5025  160.3441 N.2     1  UNL1       -0.1523
      4 C         138.9413  139.8598  160.1526 C.2     1  UNL1        0.0858
      5 C         139.7400  140.0726  161.4043 C.3     1  UNL1        0.0883
      6 C         141.0818  139.4299  161.2128 C.3     1  UNL1        0.0384
      7 C         141.1123  138.8200  159.8427 C.ar    1  UNL1       -0.0205
      8 C         142.1738  138.0569  159.1072 C.ar    1  UNL1       -0.0071
      9 C         141.9123  137.5596  157.7164 C.ar    1  UNL1       -0.0065
     10 C         140.5894  137.8253  157.0612 C.ar    1  UNL1       -0.0029
     11 C         139.5280  138.5883  157.7967 C.ar    1  UNL1        0.0006
     12 C         139.7894  139.0857  159.1875 C.ar    1  UNL1        0.0117
     13 C         139.7486  141.2633  166.1321 C.ar    1  UNL1        0.0710
     14 C         139.2601  140.4307  164.9841 C.ar    1  UNL1        0.0165
     15 C         139.2959  141.2793  163.7477 C.ar    1  UNL1        0.0233
     16 C         139.8066  142.6365  164.1316 C.ar    1  UNL1        0.0373
     17 S         140.0864  142.6266  165.6054 S.2     1  UNL1       -0.0780
     18 C         140.0051  140.3606  168.9815 C.1     1  UNL1       -0.0534
     19 C         139.8769  140.8119  167.5568 C.1     1  UNL1       -0.0554
     20 C         140.1335  139.9091  170.4062 C.3     1  UNL1        0.2182
     21 O         138.9288  139.4067  171.1452 O.3     1  UNL1       -0.3374
     22 C         137.5579  139.6101  170.5712 C.3     1  UNL1        0.1755
     23 C         136.4137  138.7631  171.0437 C.3     1  UNL1        0.1743
     24 C         135.7317  137.1198  172.9370 C.3     1  UNL1        0.1742
     25 O         136.6790  137.5242  171.8465 O.3     1  UNL1       -0.3484
     26 C         142.9738  136.7966  156.9808 C.3     1  UNL1        0.0992
     27 N         142.7733  135.3428  156.6702 N.3     1  UNL1       -0.2665
     28 C         143.4914  134.2984  157.4725 C.3     1  UNL1        0.0899
     29 C         143.2909  132.8447  157.1618 C.3     1  UNL1        0.0897
     30 N         142.3723  132.4354  156.0488 N.3     1  UNL1       -0.2691
     31 C         142.1718  130.9817  155.7381 C.3     1  UNL1        0.0897
     32 C         141.6543  133.4798  155.2465 C.3     1  UNL1        0.0897
     33 C         141.8548  134.9335  155.5572 C.3     1  UNL1        0.0899
@<TRIPOS>BOND
     1    24    25    1
     2    25    23    1
     3    23    22    1
     4    22    21    1
     5    21    20    1
     6    20    18    1
     7    18    19    3
     8    19    13    1
     9    13    14   ar
    10    14    15   ar
    11    15     1    1
    12     1     2    2
    13     2     3    1
    14     3     4    2
    15     4     5    1
    16     5     6    1
    17     6     7    1
    18     7     8   ar
    19     8     9   ar
    20     9    26    1
    21    26    27    1
    22    27    28    1
    23    28    29    1
    24    29    30    1
    25    30    31    1
    26    30    32    1
    27    32    33    1
    28     9    10   ar
    29    10    11   ar
    30    11    12   ar
    31    15    16   ar
    32    16    17   ar
    33    17    13   ar
    34     5     1    1
    35    12     7   ar
    36    12     4    1
    37    33    27    1
@<TRIPOS>MOLECULE
*****
 33 37 0 0 0
SMALL
GASTEIGER

@<TRIPOS>ATOM
      1 C         142.9056  139.0149  158.4593 C.2     1  UNL1        0.0866
      2 N         143.5751  140.3030  158.0820 N.2     1  UNL1       -0.1523
      3 N         144.0731  140.9524  159.3392 N.2     1  UNL1       -0.1523
      4 C         143.7113  140.0654  160.4936 C.2     1  UNL1        0.0858
      5 C         142.9898  138.8680  159.9498 C.3     1  UNL1        0.0883
      6 C         142.6280  137.9812  161.1041 C.3     1  UNL1        0.0384
      7 C         143.1260  138.6304  162.3613 C.ar    1  UNL1       -0.0205
      8 C         143.0562  138.2150  163.8010 C.ar    1  UNL1       -0.0071
      9 C         143.6560  139.0878  164.8632 C.ar    1  UNL1       -0.0065
     10 C         144.3255  140.3760  164.4859 C.ar    1  UNL1       -0.0029
     11 C         144.3952  140.7914  163.0462 C.ar    1  UNL1        0.0006
     12 C         143.7955  139.9185  161.9840 C.ar    1  UNL1        0.0117
     13 C         141.8223  136.0537  156.1959 C.ar    1  UNL1        0.0710
     14 C         142.7685  136.6702  157.1831 C.ar    1  UNL1        0.0165
     15 C         142.2645  138.0440  157.5126 C.ar    1  UNL1        0.0233
     16 C         141.0067  138.2767  156.7289 C.ar    1  UNL1        0.0373
     17 S         140.7334  137.0465  155.9152 S.2     1  UNL1       -0.0780
     18 C         142.0649  133.3158  154.9941 C.1     1  UNL1       -0.0534
     19 C         141.9436  134.6847  155.5950 C.1     1  UNL1       -0.0554
     20 C         142.1861  131.9468  154.3931 C.3     1  UNL1        0.2182
     21 O         143.5009  131.4849  153.8382 O.3     1  UNL1       -0.3374
     22 C         144.2289  130.3442  154.4853 C.3     1  UNL1        0.1755
     23 C         144.9411  130.5520  155.7890 C.3     1  UNL1        0.1743
     24 C         144.7303  132.4596  157.5402 C.3     1  UNL1        0.1742
     25 O         145.2807  131.9400  156.2452 O.3     1  UNL1       -0.3484
     26 C         143.5863  138.6725  166.3029 C.3     1  UNL1        0.0992
     27 N         142.4741  139.1745  167.1753 N.3     1  UNL1       -0.2665
     28 C         142.6771  139.2904  168.6571 C.3     1  UNL1        0.0899
     29 C         141.5650  139.7925  169.5294 C.3     1  UNL1        0.0897
     30 N         140.2498  140.1786  168.9201 N.3     1  UNL1       -0.2691
     31 C         139.1376  140.6806  169.7925 C.3     1  UNL1        0.0897
     32 C         140.0468  140.0627  167.4384 C.3     1  UNL1        0.0897
     33 C         141.1590  139.5606  166.5661 C.3     1  UNL1        0.0899
@<TRIPOS>BOND
     1    24    25    1
     2    25    23    1
     3    23    22    1
     4    22    21    1
     5    21    20    1
     6    20    18    1
     7    18    19    3
     8    19    13    1
     9    13    14   ar
    10    14    15   ar
    11    15     1    1
    12     1     2    2
    13     2     3    1
    14     3     4    2
    15     4     5    1
    16     5     6    1
    17     6     7    1
    18     7     8   ar
    19     8     9   ar
    20     9    26    1
    21    26    27    1
    22    27    28    1
    23    28    29    1
    24    29    30    1
    25    30    31    1
    26    30    32    1
    27    32    33    1
    28     9    10   ar
    29    10    11   ar
    30    11    12   ar
    31    15    16   ar
    32    16    17   ar
    33    17    13   ar
    34     5     1    1
    35    12     7   ar
    36    12     4    1
    37    33    27    1
@<TRIPOS>MOLECULE
*****
 33 37 0 0 0
SMALL
GASTEIGER

@<TRIPOS>ATOM
      1 C         139.3318  139.5329  167.3368 C.2     1  UNL1        0.0866
      2 N         138.0221  138.8245  167.5176 N.2     1  UNL1       -0.1523
      3 N         137.6033  138.2769  166.1854 N.2     1  UNL1       -0.1523
      4 C         138.6543  138.6470  165.1811 C.2     1  UNL1        0.0858
      5 C         139.7225  139.4232  165.8927 C.3     1  UNL1        0.0883
      6 C         140.7735  139.7932  164.8884 C.3     1  UNL1        0.0384
      7 C         140.3548  139.2457  163.5561 C.ar    1  UNL1       -0.0205
      8 C         140.9969  139.3007  162.2017 C.ar    1  UNL1       -0.0071
      9 C         140.3293  138.6473  161.0281 C.ar    1  UNL1       -0.0065
     10 C         139.0196  137.9389  161.2090 C.ar    1  UNL1       -0.0029
     11 C         138.3774  137.8839  162.5634 C.ar    1  UNL1        0.0006
     12 C         139.0450  138.5373  163.7370 C.ar    1  UNL1        0.0117
     13 C         141.8657  141.4407  169.5739 C.ar    1  UNL1        0.0710
     14 C         141.4617  140.8661  168.2485 C.ar    1  UNL1        0.0165
     15 C         140.1136  140.2287  168.4112 C.ar    1  UNL1        0.0233
     16 C         139.6844  140.4094  169.8372 C.ar    1  UNL1        0.0373
     17 S         140.7674  141.1585  170.5557 S.2     1  UNL1       -0.0780
     18 C         144.4218  142.8983  170.1582 C.1     1  UNL1       -0.0534
     19 C         143.1438  142.1695  169.8660 C.1     1  UNL1       -0.0554
     20 C         145.6999  143.6272  170.4505 C.3     1  UNL1        0.2182
     21 O         145.6704  144.9133  171.2218 O.3     1  UNL1       -0.3374
     22 C         146.8328  145.2939  172.0902 C.3     1  UNL1        0.1755
     23 C         146.7980  146.5740  172.8712 C.3     1  UNL1        0.1743
     24 C         149.2491  146.1783  173.6365 C.3     1  UNL1        0.1742
     25 O         147.9877  146.9885  173.6853 O.3     1  UNL1       -0.3484
     26 C         140.9715  138.7023  159.6736 C.3     1  UNL1        0.0992
     27 N         140.1309  138.9402  158.4542 N.3     1  UNL1       -0.2665
     28 C         140.0961  137.9186  157.3563 C.3     1  UNL1        0.0899
     29 C         139.2556  138.1565  156.1369 C.3     1  UNL1        0.0897
     30 N         138.4498  139.4159  156.0155 N.3     1  UNL1       -0.2691
     31 C         137.6092  139.6538  154.7961 C.3     1  UNL1        0.0897
     32 C         138.4846  140.4373  157.1133 C.3     1  UNL1        0.0897
     33 C         139.3251  140.1995  158.3327 C.3     1  UNL1        0.0899
@<TRIPOS>BOND
     1    24    25    1
     2    25    23    1
     3    23    22    1
     4    22    21    1
     5    21    20    1
     6    20    18    1
     7    18    19    3
     8    19    13    1
     9    13    14   ar
    10    14    15   ar
    11    15     1    1
    12     1     2    2
    13     2     3    1
    14     3     4    2
    15     4     5    1
    16     5     6    1
    17     6     7    1
    18     7     8   ar
    19     8     9   ar
    20     9    26    1
    21    26    27    1
    22    27    28    1
    23    28    29    1
    24    29    30    1
    25    30    31    1
    26    30    32    1
    27    32    33    1
    28     9    10   ar
    29    10    11   ar
    30    11    12   ar
    31    15    16   ar
    32    16    17   ar
    33    17    13   ar
    34     5     1    1
    35    12     7   ar
    36    12     4    1
    37    33    27    1
@<TRIPOS>MOLECULE
*****
 33 37 0 0 0
SMALL
GASTEIGER

@<TRIPOS>ATOM
      1 C         138.6406  140.5908  158.0831 C.2     1  UNL1        0.0866
      2 N         139.0987  139.2589  157.5671 N.2     1  UNL1       -0.1523
      3 N         139.2759  138.3428  158.7416 N.2     1  UNL1       -0.1523
      4 C         138.9273  139.1086  159.9835 C.2     1  UNL1        0.0858
      5 C         138.5347  140.4979  159.5764 C.3     1  UNL1        0.0883
      6 C         138.1861  141.2636  160.8183 C.3     1  UNL1        0.0384
      7 C         138.3633  140.3476  161.9928 C.ar    1  UNL1       -0.0205
      8 C         138.1668  140.5542  163.4654 C.ar    1  UNL1       -0.0071
      9 C         138.4283  139.4290  164.4221 C.ar    1  UNL1       -0.0065
     10 C         138.8864  138.0970  163.9062 C.ar    1  UNL1       -0.0029
     11 C         139.0830  137.8904  162.4336 C.ar    1  UNL1        0.0006
     12 C         138.8214  139.0157  161.4769 C.ar    1  UNL1        0.0117
     13 C         138.5834  143.9088  156.0699 C.ar    1  UNL1        0.0710
     14 C         139.3031  142.9050  156.9210 C.ar    1  UNL1        0.0165
     15 C         138.3410  141.8028  157.2516 C.ar    1  UNL1        0.0233
     16 C         137.0265  142.1252  156.6048 C.ar    1  UNL1        0.0373
     17 S         137.1764  143.4269  155.8744 S.2     1  UNL1       -0.0780
     18 C         139.7525  146.4362  154.9543 C.1     1  UNL1       -0.0534
     19 C         139.1680  145.1725  155.5121 C.1     1  UNL1       -0.0554
     20 C         140.3371  147.7000  154.3964 C.3     1  UNL1        0.2182
     21 O         139.5429  148.9721  154.4289 O.3     1  UNL1       -0.3374
     22 C         138.5197  149.1901  155.5039 C.3     1  UNL1        0.1755
     23 C         138.4089  150.5276  156.1737 C.3     1  UNL1        0.1743
     24 C         137.8937  149.8756  158.6353 C.3     1  UNL1        0.1742
     25 O         138.6974  150.6585  157.6398 O.3     1  UNL1       -0.3484
     26 C         138.2317  139.6355  165.8948 C.3     1  UNL1        0.0992
     27 N         139.4070  139.9533  166.7710 N.3     1  UNL1       -0.2665
     28 C         140.7157  140.3512  166.1552 C.3     1  UNL1        0.0899
     29 C         141.8909  140.6690  167.0314 C.3     1  UNL1        0.0897
     30 N         141.7575  140.5888  168.5234 N.3     1  UNL1       -0.2691
     31 C         142.9328  140.9066  169.3996 C.3     1  UNL1        0.0897
     32 C         140.4489  140.1909  169.1391 C.3     1  UNL1        0.0897
     33 C         139.2736  139.8732  168.2629 C.3     1  UNL1        0.0899
@<TRIPOS>BOND
     1    24    25    1
     2    25    23    1
     3    23    22    1
     4    22    21    1
     5    21    20    1
     6    20    18    1
     7    18    19    3
     8    19    13    1
     9    13    14   ar
    10    14    15   ar
    11    15     1    1
    12     1     2    2
    13     2     3    1
    14     3     4    2
    15     4     5    1
    16     5     6    1
    17     6     7    1
    18     7     8   ar
    19     8     9   ar
    20     9    26    1
    21    26    27    1
    22    27    28    1
    23    28    29    1
    24    29    30    1
    25    30    31    1
    26    30    32    1
    27    32    33    1
    28     9    10   ar
    29    10    11   ar
    30    11    12   ar
    31    15    16   ar
    32    16    17   ar
    33    17    13   ar
    34     5     1    1
    35    12     7   ar
    36    12     4    1
    37    33    27    1
@<TRIPOS>MOLECULE
*****
 33 37 0 0 0
SMALL
GASTEIGER

@<TRIPOS>ATOM
      1 C         139.3153  140.2111  161.4076 C.2     1  UNL1        0.0866
      2 N         137.9668  140.4172  160.7839 N.2     1  UNL1       -0.1523
      3 N         137.9824  139.7818  159.4252 N.2     1  UNL1       -0.1523
      4 C         139.3406  139.1829  159.2092 C.2     1  UNL1        0.0858
      5 C         140.1644  139.4483  160.4344 C.3     1  UNL1        0.0883
      6 C         141.5226  138.8494  160.2183 C.3     1  UNL1        0.0384
      7 C         141.5382  138.2140  158.8596 C.ar    1  UNL1       -0.0205
      8 C         142.6062  137.4743  158.1098 C.ar    1  UNL1       -0.0071
      9 C         142.3256  136.9408  156.7363 C.ar    1  UNL1       -0.0065
     10 C         140.9771  137.1469  156.1126 C.ar    1  UNL1       -0.0029
     11 C         139.9091  137.8866  156.8624 C.ar    1  UNL1        0.0006
     12 C         140.1897  138.4201  158.2360 C.ar    1  UNL1        0.0117
     13 C         139.9392  140.9090  165.1744 C.ar    1  UNL1        0.0710
     14 C         139.2539  140.1469  164.0792 C.ar    1  UNL1        0.0165
     15 C         139.7402  140.6846  162.7660 C.ar    1  UNL1        0.0233
     16 C         140.7260  141.7790  163.0497 C.ar    1  UNL1        0.0373
     17 S         140.8490  141.9177  164.5382 S.2     1  UNL1       -0.0780
     18 C         139.5570  140.4895  168.1202 C.1     1  UNL1       -0.0534
     19 C         139.7481  140.6992  166.6474 C.1     1  UNL1       -0.0554
     20 C         139.3659  140.2797  169.5932 C.3     1  UNL1        0.2182
     21 O         140.4233  139.5800  170.3946 O.3     1  UNL1       -0.3374
     22 C         141.8028  139.4106  169.8304 C.3     1  UNL1        0.1755
     23 C         142.9637  140.1199  170.4621 C.3     1  UNL1        0.1743
     24 C         142.9722  141.9875  168.6559 C.3     1  UNL1        0.1742
     25 O         143.3088  141.5173  170.0400 O.3     1  UNL1       -0.3484
     26 C         143.3936  136.2011  155.9864 C.3     1  UNL1        0.0992
     27 N         143.4017  134.7011  155.9772 N.3     1  UNL1       -0.2665
     28 C         142.9715  133.9563  154.7483 C.3     1  UNL1        0.0899
     29 C         142.9796  132.4563  154.7391 C.3     1  UNL1        0.0897
     30 N         143.4178  131.7012  155.9589 N.3     1  UNL1       -0.2691
     31 C         143.4259  130.2013  155.9498 C.3     1  UNL1        0.0897
     32 C         143.8479  132.4461  157.1878 C.3     1  UNL1        0.0897
     33 C         143.8399  133.9460  157.1969 C.3     1  UNL1        0.0899
@<TRIPOS>BOND
     1    24    25    1
     2    25    23    1
     3    23    22    1
     4    22    21    1
     5    21    20    1
     6    20    18    1
     7    18    19    3
     8    19    13    1
     9    13    14   ar
    10    14    15   ar
    11    15     1    1
    12     1     2    2
    13     2     3    1
    14     3     4    2
    15     4     5    1
    16     5     6    1
    17     6     7    1
    18     7     8   ar
    19     8     9   ar
    20     9    26    1
    21    26    27    1
    22    27    28    1
    23    28    29    1
    24    29    30    1
    25    30    31    1
    26    30    32    1
    27    32    33    1
    28     9    10   ar
    29    10    11   ar
    30    11    12   ar
    31    15    16   ar
    32    16    17   ar
    33    17    13   ar
    34     5     1    1
    35    12     7   ar
    36    12     4    1
    37    33    27    1
@<TRIPOS>MOLECULE
*****
 33 37 0 0 0
SMALL
GASTEIGER

@<TRIPOS>ATOM
      1 C         138.4545  140.1891  159.1095 C.2     1  UNL1        0.0866
      2 N         137.5315  140.6175  158.0074 N.2     1  UNL1       -0.1523
      3 N         138.0171  139.9998  156.7296 N.2     1  UNL1       -0.1523
      4 C         139.2404  139.1897  157.0420 C.2     1  UNL1        0.0858
      5 C         139.5106  139.3067  158.5128 C.3     1  UNL1        0.0883
      6 C         140.7338  138.4966  158.8252 C.3     1  UNL1        0.0384
      7 C         141.2195  137.8789  157.5474 C.ar    1  UNL1       -0.0205
      8 C         142.3829  136.9818  157.2451 C.ar    1  UNL1       -0.0071
      9 C         142.6234  136.5130  155.8407 C.ar    1  UNL1       -0.0065
     10 C         141.7003  136.9414  154.7386 C.ar    1  UNL1       -0.0029
     11 C         140.5369  137.8385  155.0410 C.ar    1  UNL1        0.0006
     12 C         140.2965  138.3073  156.4454 C.ar    1  UNL1        0.0117
     13 C         138.2008  140.4466  162.9740 C.ar    1  UNL1        0.0710
     14 C         138.3293  139.6323  161.7209 C.ar    1  UNL1        0.0165
     15 C         138.3413  140.5754  160.5545 C.ar    1  UNL1        0.0233
     16 C         138.2203  141.9726  161.0867 C.ar    1  UNL1        0.0373
     17 S         138.1335  141.8930  162.5822 S.2     1  UNL1       -0.0780
     18 C         138.0969  139.3713  165.7726 C.1     1  UNL1       -0.0534
     19 C         138.1489  139.9090  164.3734 C.1     1  UNL1       -0.0554
     20 C         138.0448  138.8335  167.1720 C.3     1  UNL1        0.2182
     21 O         138.7190  139.5769  168.2868 O.3     1  UNL1       -0.3374
     22 C         140.1181  140.0879  168.1091 C.3     1  UNL1        0.1755
     23 C         140.3562  141.5446  167.8422 C.3     1  UNL1        0.1743
     24 C         140.3143  143.0658  165.7363 C.3     1  UNL1        0.1742
     25 O         140.9636  141.9793  166.5414 O.3     1  UNL1       -0.3484
     26 C         143.7869  135.6158  155.5383 C.3     1  UNL1        0.0992
     27 N         143.6792  134.1398  155.7829 N.3     1  UNL1       -0.2665
     28 C         143.0875  133.2467  154.7330 C.3     1  UNL1        0.0899
     29 C         142.9798  131.7708  154.9776 C.3     1  UNL1        0.0897
     30 N         143.4639  131.1878  156.2723 N.3     1  UNL1       -0.2691
     31 C         143.3562  129.7119  156.5169 C.3     1  UNL1        0.0897
     32 C         144.0556  132.0809  157.3221 C.3     1  UNL1        0.0897
     33 C         144.1632  133.5569  157.0775 C.3     1  UNL1        0.0899
@<TRIPOS>BOND
     1    24    25    1
     2    25    23    1
     3    23    22    1
     4    22    21    1
     5    21    20    1
     6    20    18    1
     7    18    19    3
     8    19    13    1
     9    13    14   ar
    10    14    15   ar
    11    15     1    1
    12     1     2    2
    13     2     3    1
    14     3     4    2
    15     4     5    1
    16     5     6    1
    17     6     7    1
    18     7     8   ar
    19     8     9   ar
    20     9    26    1
    21    26    27    1
    22    27    28    1
    23    28    29    1
    24    29    30    1
    25    30    31    1
    26    30    32    1
    27    32    33    1
    28     9    10   ar
    29    10    11   ar
    30    11    12   ar
    31    15    16   ar
    32    16    17   ar
    33    17    13   ar
    34     5     1    1
    35    12     7   ar
    36    12     4    1
    37    33    27    1
@<TRIPOS>MOLECULE
*****
 33 37 0 0 0
SMALL
GASTEIGER

@<TRIPOS>ATOM
      1 C         138.7562  140.7967  158.4894 C.2     1  UNL1        0.0866
      2 N         138.5029  142.2670  158.3344 N.2     1  UNL1       -0.1523
      3 N         138.2830  142.8461  159.7006 N.2     1  UNL1       -0.1523
      4 C         138.4004  141.7336  160.6999 C.2     1  UNL1        0.0858
      5 C         138.6928  140.4671  159.9514 C.3     1  UNL1        0.0883
      6 C         138.8102  139.3546  160.9508 C.3     1  UNL1        0.0384
      7 C         138.5902  139.9337  162.3169 C.ar    1  UNL1       -0.0205
      8 C         138.5879  139.3120  163.6820 C.ar    1  UNL1       -0.0071
      9 C         138.3322  140.1607  164.8921 C.ar    1  UNL1       -0.0065
     10 C         138.0790  141.6310  164.7371 C.ar    1  UNL1       -0.0029
     11 C         138.0813  142.2527  163.3720 C.ar    1  UNL1        0.0006
     12 C         138.3370  141.4040  162.1619 C.ar    1  UNL1        0.0117
     13 C         139.8537  137.9150  156.1322 C.ar    1  UNL1        0.0710
     14 C         139.8531  138.5792  157.4771 C.ar    1  UNL1        0.0165
     15 C         139.0256  139.8264  157.3777 C.ar    1  UNL1        0.0233
     16 C         138.5148  139.9330  155.9714 C.ar    1  UNL1        0.0373
     17 S         139.0266  138.7516  155.2016 S.2     1  UNL1       -0.0780
     18 C         141.2618  135.3616  155.4274 C.1     1  UNL1       -0.0534
     19 C         140.5578  136.6382  155.7798 C.1     1  UNL1       -0.0554
     20 C         141.9659  134.0847  155.0750 C.3     1  UNL1        0.2182
     21 O         143.2884  133.7593  155.7035 O.3     1  UNL1       -0.3374
     22 C         143.3530  133.3483  157.1447 C.3     1  UNL1        0.1755
     23 C         144.6556  132.9017  157.7395 C.3     1  UNL1        0.1743
     24 C         143.9842  130.4024  157.5100 C.3     1  UNL1        0.1742
     25 O         144.8544  131.4634  158.1158 O.3     1  UNL1       -0.3484
     26 C         138.3299  139.5391  166.2573 C.3     1  UNL1        0.0992
     27 N         139.4813  139.7730  167.1898 N.3     1  UNL1       -0.2665
     28 C         139.2253  140.0710  168.6375 C.3     1  UNL1        0.0899
     29 C         140.3767  140.3049  169.5700 C.3     1  UNL1        0.0897
     30 N         141.7840  140.2407  169.0549 N.3     1  UNL1       -0.2691
     31 C         142.9354  140.4746  169.9874 C.3     1  UNL1        0.0897
     32 C         142.0399  139.9427  167.6073 C.3     1  UNL1        0.0897
     33 C         140.8886  139.7088  166.6747 C.3     1  UNL1        0.0899
@<TRIPOS>BOND
     1    24    25    1
     2    25    23    1
     3    23    22    1
     4    22    21    1
     5    21    20    1
     6    20    18    1
     7    18    19    3
     8    19    13    1
     9    13    14   ar
    10    14    15   ar
    11    15     1    1
    12     1     2    2
    13     2     3    1
    14     3     4    2
    15     4     5    1
    16     5     6    1
    17     6     7    1
    18     7     8   ar
    19     8     9   ar
    20     9    26    1
    21    26    27    1
    22    27    28    1
    23    28    29    1
    24    29    30    1
    25    30    31    1
    26    30    32    1
    27    32    33    1
    28     9    10   ar
    29    10    11   ar
    30    11    12   ar
    31    15    16   ar
    32    16    17   ar
    33    17    13   ar
    34     5     1    1
    35    12     7   ar
    36    12     4    1
    37    33    27    1
@<TRIPOS>MOLECULE
*****
 33 37 0 0 0
SMALL
GASTEIGER

@<TRIPOS>ATOM
      1 C         140.4128  143.5507  158.7878 C.2     1  UNL1        0.0866
      2 N         140.8060  144.9721  158.5140 N.2     1  UNL1       -0.1523
      3 N         141.6010  145.4671  159.6858 N.2     1  UNL1       -0.1523
      4 C         141.6991  144.3515  160.6839 C.2     1  UNL1        0.0858
      5 C         140.9647  143.1672  160.1289 C.3     1  UNL1        0.0883
      6 C         141.0628  142.0517  161.1269 C.3     1  UNL1        0.0384
      7 C         141.8578  142.5466  162.2987 C.ar    1  UNL1       -0.0205
      8 C         142.2744  141.8867  163.5796 C.ar    1  UNL1       -0.0071
      9 C         143.0842  142.6481  164.5868 C.ar    1  UNL1       -0.0065
     10 C         143.4774  144.0695  164.3130 C.ar    1  UNL1       -0.0029
     11 C         143.0608  144.7295  163.0320 C.ar    1  UNL1        0.0006
     12 C         142.2510  143.9680  162.0249 C.ar    1  UNL1        0.0117
     13 C         137.7435  141.5196  156.8346 C.ar    1  UNL1        0.0710
     14 C         138.1199  142.4894  157.9153 C.ar    1  UNL1        0.0165
     15 C         139.6088  142.6678  157.8800 C.ar    1  UNL1        0.0233
     16 C         140.1527  141.8082  156.7776 C.ar    1  UNL1        0.0373
     17 S         138.9998  141.0986  156.1315 S.2     1  UNL1       -0.0780
     18 C         134.9659  140.5861  156.1924 C.1     1  UNL1       -0.0534
     19 C         136.3547  141.0528  156.5135 C.1     1  UNL1       -0.0554
     20 C         133.5769  140.1194  155.8712 C.3     1  UNL1        0.2182
     21 O         133.1390  138.7402  156.2663 O.3     1  UNL1       -0.3374
     22 C         131.7851  138.5292  156.8766 C.3     1  UNL1        0.1755
     23 C         131.0020  139.7019  157.3881 C.3     1  UNL1        0.1743
     24 C         129.3412  138.3182  158.8293 C.3     1  UNL1        0.1742
     25 O         129.6254  139.4980  157.9477 O.3     1  UNL1       -0.3484
     26 C         143.5008  141.9881  165.8678 C.3     1  UNL1        0.0992
     27 N         142.4666  141.6012  166.8830 N.3     1  UNL1       -0.2665
     28 C         141.3166  142.5206  167.1700 C.3     1  UNL1        0.0899
     29 C         140.2824  142.1337  168.1853 C.3     1  UNL1        0.0897
     30 N         140.3982  140.8273  168.9134 N.3     1  UNL1       -0.2691
     31 C         139.3639  140.4404  169.9287 C.3     1  UNL1        0.0897
     32 C         141.5481  139.9080  168.6264 C.3     1  UNL1        0.0897
     33 C         142.5823  140.2949  167.6112 C.3     1  UNL1        0.0899
@<TRIPOS>BOND
     1    24    25    1
     2    25    23    1
     3    23    22    1
     4    22    21    1
     5    21    20    1
     6    20    18    1
     7    18    19    3
     8    19    13    1
     9    13    14   ar
    10    14    15   ar
    11    15     1    1
    12     1     2    2
    13     2     3    1
    14     3     4    2
    15     4     5    1
    16     5     6    1
    17     6     7    1
    18     7     8   ar
    19     8     9   ar
    20     9    26    1
    21    26    27    1
    22    27    28    1
    23    28    29    1
    24    29    30    1
    25    30    31    1
    26    30    32    1
    27    32    33    1
    28     9    10   ar
    29    10    11   ar
    30    11    12   ar
    31    15    16   ar
    32    16    17   ar
    33    17    13   ar
    34     5     1    1
    35    12     7   ar
    36    12     4    1
    37    33    27    1
@<TRIPOS>MOLECULE
*****
 33 37 0 0 0
SMALL
GASTEIGER

@<TRIPOS>ATOM
      1 C         142.8607  142.2980  160.2087 C.2     1  UNL1        0.0866
      2 N         143.2122  143.7550  160.2681 N.2     1  UNL1       -0.1523
      3 N         143.3794  144.1332  161.7100 N.2     1  UNL1       -0.1523
      4 C         143.1311  142.9098  162.5418 C.2     1  UNL1        0.0858
      5 C         142.8105  141.7757  161.6140 C.3     1  UNL1        0.0883
      6 C         142.5623  140.5524  162.4458 C.3     1  UNL1        0.0384
      7 C         142.7294  140.9305  163.8877 C.ar    1  UNL1       -0.0205
      8 C         142.6069  140.1364  165.1543 C.ar    1  UNL1       -0.0071
      9 C         142.8360  140.7993  166.4802 C.ar    1  UNL1       -0.0065
     10 C         143.1875  142.2563  166.5396 C.ar    1  UNL1       -0.0029
     11 C         143.3100  143.0504  165.2730 C.ar    1  UNL1        0.0006
     12 C         143.0810  142.3875  163.9471 C.ar    1  UNL1        0.0117
     13 C         142.6381  139.7243  157.3119 C.ar    1  UNL1        0.0710
     14 C         143.1469  140.1374  158.6611 C.ar    1  UNL1        0.0165
     15 C         142.6042  141.5029  158.9629 C.ar    1  UNL1        0.0233
     16 C         141.7601  141.9337  157.8002 C.ar    1  UNL1        0.0373
     17 S         141.7811  140.8344  156.7798 S.2     1  UNL1       -0.0780
     18 C         143.2307  137.1328  155.9217 C.1     1  UNL1       -0.0534
     19 C         142.9344  138.4285  156.6167 C.1     1  UNL1       -0.0554
     20 C         143.5270  135.8370  155.2265 C.3     1  UNL1        0.2182
     21 O         144.0767  134.6776  156.0035 O.3     1  UNL1       -0.3374
     22 C         143.2599  134.0511  157.0945 C.3     1  UNL1        0.1755
     23 C         143.0759  132.5630  157.1334 C.3     1  UNL1        0.1743
     24 C         141.3306  132.5181  155.2093 C.3     1  UNL1        0.1742
     25 O         142.4372  131.8556  155.9751 O.3     1  UNL1       -0.3484
     26 C         142.7134  140.0051  167.7469 C.3     1  UNL1        0.0992
     27 N         141.3954  139.9271  168.4586 N.3     1  UNL1       -0.2665
     28 C         141.3517  139.9228  169.9581 C.3     1  UNL1        0.0899
     29 C         140.0337  139.8448  170.6698 C.3     1  UNL1        0.0897
     30 N         138.7592  139.7710  169.8821 N.3     1  UNL1       -0.2691
     31 C         137.4411  139.6929  170.5938 C.3     1  UNL1        0.0897
     32 C         138.8029  139.7752  168.3828 C.3     1  UNL1        0.0897
     33 C         140.1209  139.8532  167.6710 C.3     1  UNL1        0.0899
@<TRIPOS>BOND
     1    24    25    1
     2    25    23    1
     3    23    22    1
     4    22    21    1
     5    21    20    1
     6    20    18    1
     7    18    19    3
     8    19    13    1
     9    13    14   ar
    10    14    15   ar
    11    15     1    1
    12     1     2    2
    13     2     3    1
    14     3     4    2
    15     4     5    1
    16     5     6    1
    17     6     7    1
    18     7     8   ar
    19     8     9   ar
    20     9    26    1
    21    26    27    1
    22    27    28    1
    23    28    29    1
    24    29    30    1
    25    30    31    1
    26    30    32    1
    27    32    33    1
    28     9    10   ar
    29    10    11   ar
    30    11    12   ar
    31    15    16   ar
    32    16    17   ar
    33    17    13   ar
    34     5     1    1
    35    12     7   ar
    36    12     4    1
    37    33    27    1
