@<TRIPOS>MOLECULE
*****
 25 26 0 0 0
SMALL
GASTEIGER

@<TRIPOS>ATOM
      1 C         141.4685  140.3036  166.0391 C.ar    1  UNL1        0.0520
      2 C         142.3294  139.3322  165.2872 C.ar    1  UNL1        0.0853
      3 C         143.2842  138.4454  166.0300 C.ar    1  UNL1        0.1045
      4 N         143.3782  138.5299  167.5246 N.ar    1  UNL1       -0.2436
      5 C         142.5173  139.5013  168.2766 C.ar    1  UNL1        0.0825
      6 C         142.6113  139.5858  169.7712 C.ar    1  UNL1        0.0198
      7 C         141.7505  140.5571  170.5230 C.ar    1  UNL1        0.0118
      8 C         140.7956  141.4440  169.7803 C.ar    1  UNL1        0.0686
      9 C         140.7016  141.3595  168.2856 C.ar    1  UNL1        0.0130
     10 C         141.5625  140.3881  167.5338 C.ar    1  UNL1        0.0316
     11 C         142.2354  139.2477  163.7925 C.2     1  UNL1        0.2455
     12 N         142.2811  137.9114  163.1125 N.am    1  UNL1       -0.3252
     13 O         142.0958  140.4994  162.9778 O.2     1  UNL1       -0.2703
     14 H         142.3728  137.0899  163.6473 H       1  UNL1        0.1453
     15 H         142.2195  137.8559  162.1315 H       1  UNL1        0.1453
     16 N         140.5136  141.1904  165.2963 N.pl3   1  UNL1       -0.3325
     17 H         140.8382  142.0180  164.8731 H       1  UNL1        0.1468
     18 C         139.0643  140.8164  165.1982 C.3     1  UNL1        0.0870
     19 C         138.6736  139.4442  164.7352 C.3     1  UNL1        0.0195
     20 C         138.6846  137.7565  162.7600 C.3     1  UNL1        0.0001
     21 C         138.5324  139.1591  163.2694 C.3     1  UNL1        0.0017
     22 C         138.4240  138.3570  165.7381 C.3     1  UNL1        0.0017
     23 C         137.8160  138.6891  167.0686 C.3     1  UNL1        0.0001
     24 C         139.9347  142.4154  170.5322 C.1     1  UNL1        0.1004
     25 N         139.0739  143.3867  171.2841 N.1     1  UNL1       -0.1908
@<TRIPOS>BOND
     1    20    21    1
     2    21    19    1
     3    19    22    1
     4    22    23    1
     5    19    18    1
     6    18    16    1
     7    16     1    1
     8     1     2   ar
     9     2    11    1
    10    11    12   am
    11    11    13    2
    12     2     3   ar
    13     3     4   ar
    14     4     5   ar
    15     5     6   ar
    16     6     7   ar
    17     7     8   ar
    18     8    24    1
    19    24    25    3
    20     8     9   ar
    21     9    10   ar
    22    10     1   ar
    23    10     5   ar
    24    16    17    1
    25    12    14    1
    26    12    15    1
@<TRIPOS>MOLECULE
*****
 25 26 0 0 0
SMALL
GASTEIGER

@<TRIPOS>ATOM
      1 C         142.7831  140.8220  165.8012 C.ar    1  UNL1        0.0520
      2 C         143.4283  139.5744  165.2747 C.ar    1  UNL1        0.0853
      3 C         143.6958  138.4219  166.1966 C.ar    1  UNL1        0.1045
      4 N         143.3181  138.5169  167.6452 N.ar    1  UNL1       -0.2436
      5 C         142.6729  139.7645  168.1718 C.ar    1  UNL1        0.0825
      6 C         142.2952  139.8595  169.6203 C.ar    1  UNL1        0.0198
      7 C         141.6500  141.1070  170.1469 C.ar    1  UNL1        0.0118
      8 C         141.3825  142.2596  169.2249 C.ar    1  UNL1        0.0686
      9 C         141.7602  142.1646  167.7764 C.ar    1  UNL1        0.0130
     10 C         142.4054  140.9170  167.2498 C.ar    1  UNL1        0.0316
     11 C         143.8060  139.4794  163.8260 C.2     1  UNL1        0.2455
     12 N         143.2203  138.3976  162.9677 N.am    1  UNL1       -0.3252
     13 O         144.7693  140.4661  163.2359 O.2     1  UNL1       -0.2703
     14 H         142.5880  137.7500  163.3551 H       1  UNL1        0.1453
     15 H         143.4682  138.3352  162.0170 H       1  UNL1        0.1453
     16 N         142.5156  141.9745  164.8792 N.pl3   1  UNL1       -0.3325
     17 H         143.1741  142.7016  164.7962 H       1  UNL1        0.1468
     18 C         141.2446  142.0193  164.0837 C.3     1  UNL1        0.0870
     19 C         140.0080  142.6246  164.6792 C.3     1  UNL1        0.0195
     20 C         138.6424  144.7474  165.2943 C.3     1  UNL1        0.0001
     21 C         139.9503  144.0987  164.9501 C.3     1  UNL1        0.0017
     22 C         138.8292  141.7556  165.0038 C.3     1  UNL1        0.0017
     23 C         139.0166  140.5123  165.8218 C.3     1  UNL1        0.0001
     24 C         140.7373  143.5072  169.7515 C.1     1  UNL1        0.1004
     25 N         140.0921  144.7547  170.2781 N.1     1  UNL1       -0.1908
@<TRIPOS>BOND
     1    20    21    1
     2    21    19    1
     3    19    22    1
     4    22    23    1
     5    19    18    1
     6    18    16    1
     7    16     1    1
     8     1     2   ar
     9     2    11    1
    10    11    12   am
    11    11    13    2
    12     2     3   ar
    13     3     4   ar
    14     4     5   ar
    15     5     6   ar
    16     6     7   ar
    17     7     8   ar
    18     8    24    1
    19    24    25    3
    20     8     9   ar
    21     9    10   ar
    22    10     1   ar
    23    10     5   ar
    24    16    17    1
    25    12    14    1
    26    12    15    1
@<TRIPOS>MOLECULE
*****
 25 26 0 0 0
SMALL
GASTEIGER

@<TRIPOS>ATOM
      1 C         140.6227  141.6670  167.9961 C.ar    1  UNL1        0.0520
      2 C         140.4132  141.7026  169.4809 C.ar    1  UNL1        0.0853
      3 C         139.4490  140.7514  170.1253 C.ar    1  UNL1        0.1045
      4 N         138.6942  139.7645  169.2849 N.ar    1  UNL1       -0.2436
      5 C         138.9036  139.7288  167.8000 C.ar    1  UNL1        0.0825
      6 C         138.1489  138.7420  166.9596 C.ar    1  UNL1        0.0198
      7 C         138.3584  138.7064  165.4747 C.ar    1  UNL1        0.0118
      8 C         139.3226  139.6576  164.8303 C.ar    1  UNL1        0.0686
      9 C         140.0774  140.6445  165.6707 C.ar    1  UNL1        0.0130
     10 C         139.8679  140.6801  167.1556 C.ar    1  UNL1        0.0316
     11 C         141.1680  142.6895  170.3214 C.2     1  UNL1        0.2455
     12 N         142.1325  142.2048  171.3630 N.am    1  UNL1       -0.3252
     13 O         140.9584  144.1611  170.1203 O.2     1  UNL1       -0.2703
     14 H         142.2701  141.2389  171.4949 H       1  UNL1        0.1453
     15 H         142.6279  142.8525  171.9146 H       1  UNL1        0.1453
     16 N         141.5870  142.6183  167.3516 N.pl3   1  UNL1       -0.3325
     17 H         141.2751  143.4973  167.0366 H       1  UNL1        0.1468
     18 C         143.0266  142.2302  167.1873 C.3     1  UNL1        0.0870
     19 C         143.6811  142.3293  165.8412 C.3     1  UNL1        0.0195
     20 C         144.8560  140.6727  164.2209 C.3     1  UNL1        0.0001
     21 C         143.6088  141.1756  164.8853 C.3     1  UNL1        0.0017
     22 C         144.4080  143.5822  165.4511 C.3     1  UNL1        0.0017
     23 C         143.9030  144.4187  164.3130 C.3     1  UNL1        0.0001
     24 C         139.5321  139.6220  163.3454 C.1     1  UNL1        0.1004
     25 N         139.7416  139.5863  161.8605 N.1     1  UNL1       -0.1908
@<TRIPOS>BOND
     1    20    21    1
     2    21    19    1
     3    19    22    1
     4    22    23    1
     5    19    18    1
     6    18    16    1
     7    16     1    1
     8     1     2   ar
     9     2    11    1
    10    11    12   am
    11    11    13    2
    12     2     3   ar
    13     3     4   ar
    14     4     5   ar
    15     5     6   ar
    16     6     7   ar
    17     7     8   ar
    18     8    24    1
    19    24    25    3
    20     8     9   ar
    21     9    10   ar
    22    10     1   ar
    23    10     5   ar
    24    16    17    1
    25    12    14    1
    26    12    15    1
@<TRIPOS>MOLECULE
*****
 25 26 0 0 0
SMALL
GASTEIGER

@<TRIPOS>ATOM
      1 C         140.0856  140.2163  165.9156 C.ar    1  UNL1        0.0520
      2 C         139.1485  139.2148  165.3083 C.ar    1  UNL1        0.0853
      3 C         138.1295  138.5249  166.1661 C.ar    1  UNL1        0.1045
      4 N         138.0476  138.8365  167.6310 N.ar    1  UNL1       -0.2436
      5 C         138.9847  139.8381  168.2383 C.ar    1  UNL1        0.0825
      6 C         138.9029  140.1497  169.7033 C.ar    1  UNL1        0.0198
      7 C         139.8400  141.1512  170.3105 C.ar    1  UNL1        0.0118
      8 C         140.8589  141.8411  169.4528 C.ar    1  UNL1        0.0686
      9 C         140.9408  141.5295  167.9878 C.ar    1  UNL1        0.0130
     10 C         140.0037  140.5280  167.3806 C.ar    1  UNL1        0.0316
     11 C         139.2303  138.9032  163.8433 C.2     1  UNL1        0.2455
     12 N         138.0411  139.1363  162.9594 N.am    1  UNL1       -0.3252
     13 O         140.5014  138.3584  163.2623 O.2     1  UNL1       -0.2703
     14 H         137.2068  139.4939  163.3407 H       1  UNL1        0.1453
     15 H         138.0948  138.9318  161.9978 H       1  UNL1        0.1453
     16 N         141.1046  140.9063  165.0578 N.pl3   1  UNL1       -0.3325
     17 H         142.0386  140.5950  165.0562 H       1  UNL1        0.1468
     18 C         140.7004  142.0704  164.2025 C.3     1  UNL1        0.0870
     19 C         139.4848  142.8748  164.5564 C.3     1  UNL1        0.0195
     20 C         138.4880  144.9974  165.6748 C.3     1  UNL1        0.0001
     21 C         139.5842  143.9792  165.5665 C.3     1  UNL1        0.0017
     22 C         138.1697  142.5746  163.9002 C.3     1  UNL1        0.0017
     23 C         137.9009  143.0549  162.5048 C.3     1  UNL1        0.0001
     24 C         141.7961  142.8426  170.0601 C.1     1  UNL1        0.1004
     25 N         142.7331  143.8442  170.6674 N.1     1  UNL1       -0.1908
@<TRIPOS>BOND
     1    20    21    1
     2    21    19    1
     3    19    22    1
     4    22    23    1
     5    19    18    1
     6    18    16    1
     7    16     1    1
     8     1     2   ar
     9     2    11    1
    10    11    12   am
    11    11    13    2
    12     2     3   ar
    13     3     4   ar
    14     4     5   ar
    15     5     6   ar
    16     6     7   ar
    17     7     8   ar
    18     8    24    1
    19    24    25    3
    20     8     9   ar
    21     9    10   ar
    22    10     1   ar
    23    10     5   ar
    24    16    17    1
    25    12    14    1
    26    12    15    1
@<TRIPOS>MOLECULE
*****
 25 26 0 0 0
SMALL
GASTEIGER

@<TRIPOS>ATOM
      1 C         139.8987  140.6528  165.9003 C.ar    1  UNL1        0.0520
      2 C         138.6509  139.8989  165.5474 C.ar    1  UNL1        0.0853
      3 C         137.8916  139.1647  166.6126 C.ar    1  UNL1        0.1045
      4 N         138.3801  139.1845  168.0306 N.ar    1  UNL1       -0.2436
      5 C         139.6280  139.9384  168.3836 C.ar    1  UNL1        0.0825
      6 C         140.1165  139.9582  169.8016 C.ar    1  UNL1        0.0198
      7 C         141.3642  140.7121  170.1545 C.ar    1  UNL1        0.0118
      8 C         142.1235  141.4463  169.0894 C.ar    1  UNL1        0.0686
      9 C         141.6350  141.4265  167.6713 C.ar    1  UNL1        0.0130
     10 C         140.3872  140.6726  167.3184 C.ar    1  UNL1        0.0316
     11 C         138.1623  139.8791  164.1293 C.2     1  UNL1        0.2455
     12 N         137.2446  140.9587  163.6371 N.am    1  UNL1       -0.3252
     13 O         138.5915  138.7797  163.2035 O.2     1  UNL1       -0.2703
     14 H         136.9629  141.6802  164.2447 H       1  UNL1        0.1453
     15 H         136.9239  140.9457  162.7064 H       1  UNL1        0.1453
     16 N         140.6580  141.3869  164.8352 N.pl3   1  UNL1       -0.3325
     17 H         140.5086  142.3505  164.6996 H       1  UNL1        0.1468
     18 C         141.6449  140.6528  163.9765 C.3     1  UNL1        0.0870
     19 C         142.8882  140.0774  164.5874 C.3     1  UNL1        0.0195
     20 C         143.5147  138.4115  166.4801 C.3     1  UNL1        0.0001
     21 C         142.8721  138.6883  165.1533 C.3     1  UNL1        0.0017
     22 C         144.1476  140.8910  164.6323 C.3     1  UNL1        0.0017
     23 C         144.0978  142.3269  165.0631 C.3     1  UNL1        0.0001
     24 C         143.3714  142.2002  169.4424 C.1     1  UNL1        0.1004
     25 N         144.6192  142.9541  169.7954 N.1     1  UNL1       -0.1908
@<TRIPOS>BOND
     1    20    21    1
     2    21    19    1
     3    19    22    1
     4    22    23    1
     5    19    18    1
     6    18    16    1
     7    16     1    1
     8     1     2   ar
     9     2    11    1
    10    11    12   am
    11    11    13    2
    12     2     3   ar
    13     3     4   ar
    14     4     5   ar
    15     5     6   ar
    16     6     7   ar
    17     7     8   ar
    18     8    24    1
    19    24    25    3
    20     8     9   ar
    21     9    10   ar
    22    10     1   ar
    23    10     5   ar
    24    16    17    1
    25    12    14    1
    26    12    15    1
@<TRIPOS>MOLECULE
*****
 25 26 0 0 0
SMALL
GASTEIGER

@<TRIPOS>ATOM
      1 C         139.9563  140.6574  166.0746 C.ar    1  UNL1        0.0520
      2 C         138.6944  139.9152  165.7480 C.ar    1  UNL1        0.0853
      3 C         137.9351  139.2125  166.8341 C.ar    1  UNL1        0.1045
      4 N         138.4377  139.2519  168.2468 N.ar    1  UNL1       -0.2436
      5 C         139.6997  139.9941  168.5735 C.ar    1  UNL1        0.0825
      6 C         140.2023  140.0335  169.9862 C.ar    1  UNL1        0.0198
      7 C         141.4642  140.7757  170.3128 C.ar    1  UNL1        0.0118
      8 C         142.2235  141.4784  169.2267 C.ar    1  UNL1        0.0686
      9 C         141.7209  141.4390  167.8140 C.ar    1  UNL1        0.0130
     10 C         140.4590  140.6968  167.4874 C.ar    1  UNL1        0.0316
     11 C         138.1917  139.8758  164.3352 C.2     1  UNL1        0.2455
     12 N         137.4332  141.0429  163.7763 N.am    1  UNL1       -0.3252
     13 O         138.4476  138.6693  163.4815 O.2     1  UNL1       -0.2703
     14 H         137.2652  141.8348  164.3366 H       1  UNL1        0.1453
     15 H         137.1032  141.0170  162.8490 H       1  UNL1        0.1453
     16 N         140.7156  141.3602  164.9885 N.pl3   1  UNL1       -0.3325
     17 H         140.5847  142.3247  164.8413 H       1  UNL1        0.1468
     18 C         141.6744  140.5932  164.1267 C.3     1  UNL1        0.0870
     19 C         142.2692  139.3096  164.6254 C.3     1  UNL1        0.0195
     20 C         141.6956  137.5877  162.7664 C.3     1  UNL1        0.0001
     21 C         141.6755  137.9965  164.2095 C.3     1  UNL1        0.0017
     22 C         143.4578  139.3393  165.5399 C.3     1  UNL1        0.0017
     23 C         143.6275  138.2756  166.5839 C.3     1  UNL1        0.0001
     24 C         143.4855  142.2206  169.5534 C.1     1  UNL1        0.1004
     25 N         144.7474  142.9628  169.8800 N.1     1  UNL1       -0.1908
@<TRIPOS>BOND
     1    20    21    1
     2    21    19    1
     3    19    22    1
     4    22    23    1
     5    19    18    1
     6    18    16    1
     7    16     1    1
     8     1     2   ar
     9     2    11    1
    10    11    12   am
    11    11    13    2
    12     2     3   ar
    13     3     4   ar
    14     4     5   ar
    15     5     6   ar
    16     6     7   ar
    17     7     8   ar
    18     8    24    1
    19    24    25    3
    20     8     9   ar
    21     9    10   ar
    22    10     1   ar
    23    10     5   ar
    24    16    17    1
    25    12    14    1
    26    12    15    1
@<TRIPOS>MOLECULE
*****
 25 26 0 0 0
SMALL
GASTEIGER

@<TRIPOS>ATOM
      1 C         141.6973  142.3140  164.2505 C.ar    1  UNL1        0.0520
      2 C         142.9345  143.1518  164.1184 C.ar    1  UNL1        0.0853
      3 C         143.8738  143.2907  165.2795 C.ar    1  UNL1        0.1045
      4 N         143.5760  142.5918  166.5729 N.ar    1  UNL1       -0.2436
      5 C         142.3388  141.7539  166.7051 C.ar    1  UNL1        0.0825
      6 C         142.0410  141.0550  167.9985 C.ar    1  UNL1        0.0198
      7 C         140.8038  140.2172  168.1306 C.ar    1  UNL1        0.0118
      8 C         139.8645  140.0783  166.9694 C.ar    1  UNL1        0.0686
      9 C         140.1623  140.7772  165.6761 C.ar    1  UNL1        0.0130
     10 C         141.3995  141.6150  165.5439 C.ar    1  UNL1        0.0316
     11 C         143.2324  143.8507  162.8249 C.2     1  UNL1        0.2455
     12 N         143.6372  145.2950  162.8289 N.am    1  UNL1       -0.3252
     13 O         143.1255  143.1053  161.5277 O.2     1  UNL1       -0.2703
     14 H         143.7073  145.7843  163.6803 H       1  UNL1        0.1453
     15 H         143.8327  145.7538  161.9800 H       1  UNL1        0.1453
     16 N         140.7580  142.1751  163.0893 N.pl3   1  UNL1       -0.3325
     17 H         140.8490  141.4145  162.4708 H       1  UNL1        0.1468
     18 C         139.6800  143.1950  162.8705 C.3     1  UNL1        0.0870
     19 C         138.3317  143.0082  163.5007 C.3     1  UNL1        0.0195
     20 C         137.6767  140.5279  163.0892 C.3     1  UNL1        0.0001
     21 C         137.3790  141.9911  162.9460 C.3     1  UNL1        0.0017
     22 C         137.9362  143.8385  164.6857 C.3     1  UNL1        0.0017
     23 C         138.9289  144.7726  165.3119 C.3     1  UNL1        0.0001
     24 C         138.6273  139.2405  167.1017 C.1     1  UNL1        0.1004
     25 N         137.3902  138.4027  167.2338 N.1     1  UNL1       -0.1908
@<TRIPOS>BOND
     1    20    21    1
     2    21    19    1
     3    19    22    1
     4    22    23    1
     5    19    18    1
     6    18    16    1
     7    16     1    1
     8     1     2   ar
     9     2    11    1
    10    11    12   am
    11    11    13    2
    12     2     3   ar
    13     3     4   ar
    14     4     5   ar
    15     5     6   ar
    16     6     7   ar
    17     7     8   ar
    18     8    24    1
    19    24    25    3
    20     8     9   ar
    21     9    10   ar
    22    10     1   ar
    23    10     5   ar
    24    16    17    1
    25    12    14    1
    26    12    15    1
@<TRIPOS>MOLECULE
*****
 25 26 0 0 0
SMALL
GASTEIGER

@<TRIPOS>ATOM
      1 C         141.5158  140.4275  167.8710 C.ar    1  UNL1        0.0520
      2 C         141.1893  140.8773  169.2641 C.ar    1  UNL1        0.0853
      3 C         139.8270  140.6181  169.8361 C.ar    1  UNL1        0.1045
      4 N         138.7913  139.9090  169.0149 N.ar    1  UNL1       -0.2436
      5 C         139.1178  139.4591  167.6216 C.ar    1  UNL1        0.0825
      6 C         138.0821  138.7500  166.8004 C.ar    1  UNL1        0.0198
      7 C         138.4087  138.3001  165.4072 C.ar    1  UNL1        0.0118
      8 C         139.7709  138.5593  164.8353 C.ar    1  UNL1        0.0686
      9 C         140.8066  139.2684  165.6565 C.ar    1  UNL1        0.0130
     10 C         140.4801  139.7183  167.0497 C.ar    1  UNL1        0.0316
     11 C         142.2250  141.5865  170.0855 C.2     1  UNL1        0.2455
     12 N         141.8574  142.8228  170.8512 N.am    1  UNL1       -0.3252
     13 O         143.6281  141.0593  170.1409 O.2     1  UNL1       -0.2703
     14 H         140.9364  143.1688  170.8148 H       1  UNL1        0.1453
     15 H         142.5372  143.2882  171.3903 H       1  UNL1        0.1453
     16 N         142.8780  140.6867  167.2991 N.pl3   1  UNL1       -0.3325
     17 H         143.5607  139.9774  167.3124 H       1  UNL1        0.1468
     18 C         143.2002  142.0267  166.7067 C.3     1  UNL1        0.0870
     19 C         143.2578  142.1940  165.2172 C.3     1  UNL1        0.0195
     20 C         140.8079  143.0587  165.2062 C.3     1  UNL1        0.0001
     21 C         142.0323  142.6151  164.4618 C.3     1  UNL1        0.0017
     22 C         144.5411  141.9401  164.4831 C.3     1  UNL1        0.0017
     23 C         144.9627  140.5342  164.1738 C.3     1  UNL1        0.0001
     24 C         140.0974  138.1094  163.4421 C.1     1  UNL1        0.1004
     25 N         140.4239  137.6595  162.0489 N.1     1  UNL1       -0.1908
@<TRIPOS>BOND
     1    20    21    1
     2    21    19    1
     3    19    22    1
     4    22    23    1
     5    19    18    1
     6    18    16    1
     7    16     1    1
     8     1     2   ar
     9     2    11    1
    10    11    12   am
    11    11    13    2
    12     2     3   ar
    13     3     4   ar
    14     4     5   ar
    15     5     6   ar
    16     6     7   ar
    17     7     8   ar
    18     8    24    1
    19    24    25    3
    20     8     9   ar
    21     9    10   ar
    22    10     1   ar
    23    10     5   ar
    24    16    17    1
    25    12    14    1
    26    12    15    1
@<TRIPOS>MOLECULE
*****
 25 26 0 0 0
SMALL
GASTEIGER

@<TRIPOS>ATOM
      1 C         139.2614  143.1271  164.6569 C.ar    1  UNL1        0.0520
      2 C         138.4708  142.5312  163.5301 C.ar    1  UNL1        0.0853
      3 C         138.0182  141.1030  163.6045 C.ar    1  UNL1        0.1045
      4 N         138.3563  140.2708  164.8058 N.ar    1  UNL1       -0.2436
      5 C         139.1469  140.8667  165.9327 C.ar    1  UNL1        0.0825
      6 C         139.4849  140.0344  167.1340 C.ar    1  UNL1        0.0198
      7 C         140.2756  140.6303  168.2608 C.ar    1  UNL1        0.0118
      8 C         140.7281  142.0585  168.1864 C.ar    1  UNL1        0.0686
      9 C         140.3901  142.8908  166.9851 C.ar    1  UNL1        0.0130
     10 C         139.5995  142.2948  165.8583 C.ar    1  UNL1        0.0316
     11 C         138.1327  143.3634  162.3288 C.2     1  UNL1        0.2455
     12 N         138.1511  142.7482  160.9609 N.am    1  UNL1       -0.3252
     13 O         137.7763  144.8109  162.4954 O.2     1  UNL1       -0.2703
     14 H         138.3850  141.7981  160.8516 H       1  UNL1        0.1453
     15 H         137.9292  143.2944  160.1724 H       1  UNL1        0.1453
     16 N         139.7140  144.5553  164.5825 N.pl3   1  UNL1       -0.3325
     17 H         139.0969  145.2808  164.8315 H       1  UNL1        0.1468
     18 C         141.1068  144.8780  164.1287 C.3     1  UNL1        0.0870
     19 C         141.9684  143.8052  163.5314 C.3     1  UNL1        0.0195
     20 C         141.4522  144.5031  161.0827 C.3     1  UNL1        0.0001
     21 C         141.8245  143.4479  162.0817 C.3     1  UNL1        0.0017
     22 C         142.9741  143.0896  164.3839 C.3     1  UNL1        0.0017
     23 C         142.8966  141.6002  164.5448 C.3     1  UNL1        0.0001
     24 C         141.5188  142.6544  169.3133 C.1     1  UNL1        0.1004
     25 N         142.3094  143.2503  170.4401 N.1     1  UNL1       -0.1908
@<TRIPOS>BOND
     1    20    21    1
     2    21    19    1
     3    19    22    1
     4    22    23    1
     5    19    18    1
     6    18    16    1
     7    16     1    1
     8     1     2   ar
     9     2    11    1
    10    11    12   am
    11    11    13    2
    12     2     3   ar
    13     3     4   ar
    14     4     5   ar
    15     5     6   ar
    16     6     7   ar
    17     7     8   ar
    18     8    24    1
    19    24    25    3
    20     8     9   ar
    21     9    10   ar
    22    10     1   ar
    23    10     5   ar
    24    16    17    1
    25    12    14    1
    26    12    15    1
