@<TRIPOS>MOLECULE
*****
 31 35 0 0 0
SMALL
GASTEIGER

@<TRIPOS>ATOM
      1 C         137.8759  140.4535  157.0104 C.ar    1  UNL1        0.2229
      2 N         139.2546  140.1220  156.5213 N.ar    1  UNL1       -0.1970
      3 C         140.2924  139.6249  157.4834 C.ar    1  UNL1        0.1555
      4 C         139.9515  139.4592  158.9348 C.ar    1  UNL1        0.1486
      5 N         140.9893  138.9621  159.8970 N.ar    1  UNL1       -0.2363
      6 C         140.6483  138.7965  161.3483 C.ar    1  UNL1        0.1181
      7 C         139.2696  139.1281  161.8374 C.ar    1  UNL1        0.1021
      8 N         138.2318  139.6252  160.8752 N.ar    1  UNL1       -0.2236
      9 C         138.5728  139.7908  159.4240 C.ar    1  UNL1        0.1857
     10 N         137.5350  140.2879  158.4617 N.ar    1  UNL1       -0.1929
     11 C         136.6358  142.8941  152.5938 C.3     1  UNL1        0.0339
     12 C         136.2181  142.1710  153.8399 C.3     1  UNL1        0.1350
     13 C         137.2558  141.6738  154.8021 C.3     1  UNL1        0.1231
     14 N         136.8381  140.9507  156.0481 N.pl3   1  UNL1       -0.2732
     15 C         135.3826  140.7247  156.3319 C.3     1  UNL1        0.1231
     16 C         134.3449  141.2218  155.3697 C.3     1  UNL1        0.1350
     17 C         132.8894  140.9958  155.6534 C.3     1  UNL1        0.0339
     18 O         134.7626  141.9450  154.1237 O.3     1  UNL1       -0.3552
     19 N         141.6711  139.2933  156.9943 N.pl3   1  UNL1       -0.2885
     20 C         142.7535  140.3306  157.0422 C.3     1  UNL1        0.1242
     21 C         144.1322  139.9991  156.5531 C.3     1  UNL1        0.1636
     22 O         144.4285  138.6302  156.0161 O.3     1  UNL1       -0.3502
     23 C         143.3461  137.5928  155.9682 C.3     1  UNL1        0.1618
     24 C         141.9673  137.9244  156.4573 C.3     1  UNL1        0.1039
     25 C         140.8849  136.8871  156.4094 C.3     1  UNL1        0.0241
     26 C         138.9287  138.9625  163.2888 C.ar    1  UNL1        0.0192
     27 C         139.0707  137.6207  163.9442 C.ar    1  UNL1        0.0015
     28 C         138.7298  137.4551  165.3956 C.ar    1  UNL1        0.0000
     29 C         138.2469  138.6313  166.1915 C.ar    1  UNL1        0.0000
     30 C         138.1050  139.9731  165.5360 C.ar    1  UNL1        0.0000
     31 C         138.4459  140.1386  164.0847 C.ar    1  UNL1        0.0015
@<TRIPOS>BOND
     1    12    11    1
     2    12    13    1
     3    13    14    1
     4    14     1    1
     5     1     2   ar
     6     2     3   ar
     7     3    19    1
     8    19    20    1
     9    20    21    1
    10    21    22    1
    11    22    23    1
    12    23    24    1
    13    24    25    1
    14     3     4   ar
    15     4     5   ar
    16     5     6   ar
    17     6     7   ar
    18     7    26    1
    19    26    27   ar
    20    27    28   ar
    21    28    29   ar
    22    29    30   ar
    23    30    31   ar
    24     7     8   ar
    25     8     9   ar
    26     9    10   ar
    27    14    15    1
    28    15    16    1
    29    16    17    1
    30    16    18    1
    31    18    12    1
    32    10     1   ar
    33    24    19    1
    34     9     4   ar
    35    31    26   ar
@<TRIPOS>MOLECULE
*****
 31 35 0 0 0
SMALL
GASTEIGER

@<TRIPOS>ATOM
      1 C         137.9003  140.4629  157.0115 C.ar    1  UNL1        0.2229
      2 N         139.2775  140.1279  156.5206 N.ar    1  UNL1       -0.1970
      3 C         140.3145  139.6256  157.4809 C.ar    1  UNL1        0.1555
      4 C         139.9743  139.4583  158.9323 C.ar    1  UNL1        0.1486
      5 N         141.0113  138.9561  159.8926 N.ar    1  UNL1       -0.2363
      6 C         140.6711  138.7888  161.3439 C.ar    1  UNL1        0.1181
      7 C         139.2938  139.1238  161.8348 C.ar    1  UNL1        0.1021
      8 N         138.2568  139.6261  160.8744 N.ar    1  UNL1       -0.2236
      9 C         138.5971  139.7933  159.4232 C.ar    1  UNL1        0.1857
     10 N         137.5600  140.2956  158.4627 N.ar    1  UNL1       -0.1929
     11 C         132.9168  140.9767  155.6329 C.3     1  UNL1        0.0339
     12 C         134.3715  141.2220  155.3618 C.3     1  UNL1        0.1350
     13 C         135.4085  140.7198  156.3221 C.3     1  UNL1        0.1231
     14 N         136.8633  140.9652  156.0510 N.pl3   1  UNL1       -0.2732
     15 C         137.2810  141.7128  154.8196 C.3     1  UNL1        0.1231
     16 C         136.2440  142.2150  153.8592 C.3     1  UNL1        0.1350
     17 C         136.6617  142.9626  152.6277 C.3     1  UNL1        0.0339
     18 O         134.7893  141.9696  154.1303 O.3     1  UNL1       -0.3552
     19 N         141.6918  139.2906  156.9900 N.pl3   1  UNL1       -0.2885
     20 C         142.7749  140.3275  157.0294 C.3     1  UNL1        0.1242
     21 C         144.1521  139.9925  156.5385 C.3     1  UNL1        0.1636
     22 O         144.4462  138.6206  156.0082 O.3     1  UNL1       -0.3502
     23 C         143.3631  137.5836  155.9687 C.3     1  UNL1        0.1618
     24 C         141.9858  137.9186  156.4596 C.3     1  UNL1        0.1039
     25 C         140.9027  136.8817  156.4202 C.3     1  UNL1        0.0241
     26 C         138.9536  138.9565  163.2861 C.ar    1  UNL1        0.0192
     27 C         138.4586  140.1288  164.0804 C.ar    1  UNL1        0.0015
     28 C         138.1184  139.9615  165.5317 C.ar    1  UNL1        0.0000
     29 C         138.2732  138.6219  166.1888 C.ar    1  UNL1        0.0000
     30 C         138.7683  137.4497  165.3944 C.ar    1  UNL1        0.0000
     31 C         139.1085  137.6170  163.9432 C.ar    1  UNL1        0.0015
@<TRIPOS>BOND
     1    12    11    1
     2    12    13    1
     3    13    14    1
     4    14     1    1
     5     1     2   ar
     6     2     3   ar
     7     3    19    1
     8    19    20    1
     9    20    21    1
    10    21    22    1
    11    22    23    1
    12    23    24    1
    13    24    25    1
    14     3     4   ar
    15     4     5   ar
    16     5     6   ar
    17     6     7   ar
    18     7    26    1
    19    26    27   ar
    20    27    28   ar
    21    28    29   ar
    22    29    30   ar
    23    30    31   ar
    24     7     8   ar
    25     8     9   ar
    26     9    10   ar
    27    14    15    1
    28    15    16    1
    29    16    17    1
    30    16    18    1
    31    18    12    1
    32    10     1   ar
    33    24    19    1
    34     9     4   ar
    35    31    26   ar
@<TRIPOS>MOLECULE
*****
 31 35 0 0 0
SMALL
GASTEIGER

@<TRIPOS>ATOM
      1 C         140.3580  138.0790  156.7632 C.ar    1  UNL1        0.2229
      2 N         139.6471  139.2655  156.1829 N.ar    1  UNL1       -0.1970
      3 C         138.8754  140.1892  157.0781 C.ar    1  UNL1        0.1555
      4 C         138.8146  139.9263  158.5537 C.ar    1  UNL1        0.1486
      5 N         138.0429  140.8499  159.4489 N.ar    1  UNL1       -0.2363
      6 C         137.9822  140.5870  160.9244 C.ar    1  UNL1        0.1181
      7 C         138.6931  139.4004  161.5047 C.ar    1  UNL1        0.1021
      8 N         139.4648  138.4768  160.6095 N.ar    1  UNL1       -0.2236
      9 C         139.5255  138.7397  159.1340 C.ar    1  UNL1        0.1857
     10 N         140.2972  137.8161  158.2387 N.ar    1  UNL1       -0.1929
     11 C         143.8337  134.2647  156.1546 C.3     1  UNL1        0.0339
     12 C         142.8675  135.2482  155.5637 C.3     1  UNL1        0.1350
     13 C         142.0958  136.1718  156.4589 C.3     1  UNL1        0.1231
     14 N         141.1297  137.1554  155.8680 N.pl3   1  UNL1       -0.2732
     15 C         140.9352  137.2153  154.3819 C.3     1  UNL1        0.1231
     16 C         141.7069  136.2917  153.4867 C.3     1  UNL1        0.1350
     17 C         141.5124  136.3516  152.0005 C.3     1  UNL1        0.0339
     18 O         142.6730  135.3082  154.0776 O.3     1  UNL1       -0.3552
     19 N         138.1645  141.3757  156.4978 N.pl3   1  UNL1       -0.2885
     20 C         136.7524  141.2395  156.0106 C.3     1  UNL1        0.1242
     21 C         136.0415  142.4260  155.4303 C.3     1  UNL1        0.1636
     22 O         136.7427  143.7488  155.3372 O.3     1  UNL1       -0.3502
     23 C         138.1549  143.8850  155.8244 C.3     1  UNL1        0.1618
     24 C         138.8658  142.6985  156.4047 C.3     1  UNL1        0.1039
     25 C         140.2779  142.8346  156.8919 C.3     1  UNL1        0.0241
     26 C         138.6323  139.1375  162.9803 C.ar    1  UNL1        0.0192
     27 C         138.1913  140.2222  163.9178 C.ar    1  UNL1        0.0015
     28 C         138.1305  139.9593  165.3934 C.ar    1  UNL1        0.0000
     29 C         138.5107  138.6117  165.9314 C.ar    1  UNL1        0.0000
     30 C         138.9518  137.5270  164.9938 C.ar    1  UNL1        0.0000
     31 C         139.0125  137.7900  163.5183 C.ar    1  UNL1        0.0015
@<TRIPOS>BOND
     1    12    11    1
     2    12    13    1
     3    13    14    1
     4    14     1    1
     5     1     2   ar
     6     2     3   ar
     7     3    19    1
     8    19    20    1
     9    20    21    1
    10    21    22    1
    11    22    23    1
    12    23    24    1
    13    24    25    1
    14     3     4   ar
    15     4     5   ar
    16     5     6   ar
    17     6     7   ar
    18     7    26    1
    19    26    27   ar
    20    27    28   ar
    21    28    29   ar
    22    29    30   ar
    23    30    31   ar
    24     7     8   ar
    25     8     9   ar
    26     9    10   ar
    27    14    15    1
    28    15    16    1
    29    16    17    1
    30    16    18    1
    31    18    12    1
    32    10     1   ar
    33    24    19    1
    34     9     4   ar
    35    31    26   ar
@<TRIPOS>MOLECULE
*****
 31 35 0 0 0
SMALL
GASTEIGER

@<TRIPOS>ATOM
      1 C         142.8599  135.9052  156.2237 C.ar    1  UNL1        0.2229
      2 N         141.6069  136.6387  156.6004 N.ar    1  UNL1       -0.1970
      3 C         141.5617  138.1359  156.5216 C.ar    1  UNL1        0.1555
      4 C         142.7697  138.8998  156.0661 C.ar    1  UNL1        0.1486
      5 N         142.7246  140.3970  155.9873 N.ar    1  UNL1       -0.2363
      6 C         143.9325  141.1607  155.5318 C.ar    1  UNL1        0.1181
      7 C         145.1855  140.4273  155.1551 C.ar    1  UNL1        0.1021
      8 N         145.2307  138.9301  155.2339 N.ar    1  UNL1       -0.2236
      9 C         144.0228  138.1663  155.6894 C.ar    1  UNL1        0.1857
     10 N         144.0679  136.6690  155.7682 N.ar    1  UNL1       -0.1929
     11 C         145.0818  131.5575  158.0015 C.3     1  UNL1        0.0339
     12 C         144.0160  132.2341  157.1914 C.3     1  UNL1        0.1350
     13 C         143.9709  133.7313  157.1126 C.3     1  UNL1        0.1231
     14 N         142.9050  134.4079  156.3025 N.pl3   1  UNL1       -0.2732
     15 C         141.8843  133.5873  155.5713 C.3     1  UNL1        0.1231
     16 C         141.9295  132.0901  155.6502 C.3     1  UNL1        0.1350
     17 C         140.9087  131.2694  154.9189 C.3     1  UNL1        0.0339
     18 O         142.9953  131.4135  156.4602 O.3     1  UNL1       -0.3552
     19 N         140.3087  138.8693  156.8983 N.pl3   1  UNL1       -0.2885
     20 C         139.3412  139.2966  155.8347 C.3     1  UNL1        0.1242
     21 C         138.0881  140.0300  156.2114 C.3     1  UNL1        0.1636
     22 O         137.8026  140.3362  157.6518 O.3     1  UNL1       -0.3502
     23 C         138.7701  139.9090  158.7155 C.3     1  UNL1        0.1618
     24 C         140.0232  139.1755  158.3388 C.3     1  UNL1        0.1039
     25 C         140.9906  138.7483  159.4024 C.3     1  UNL1        0.0241
     26 C         146.3935  141.1912  154.6995 C.ar    1  UNL1        0.0192
     27 C         146.4734  141.6968  153.2896 C.ar    1  UNL1        0.0015
     28 C         147.6814  142.4607  152.8341 C.ar    1  UNL1        0.0000
     29 C         148.8094  142.7188  153.7886 C.ar    1  UNL1        0.0000
     30 C         148.7294  142.2131  155.1985 C.ar    1  UNL1        0.0000
     31 C         147.5215  141.4493  155.6540 C.ar    1  UNL1        0.0015
@<TRIPOS>BOND
     1    12    11    1
     2    12    13    1
     3    13    14    1
     4    14     1    1
     5     1     2   ar
     6     2     3   ar
     7     3    19    1
     8    19    20    1
     9    20    21    1
    10    21    22    1
    11    22    23    1
    12    23    24    1
    13    24    25    1
    14     3     4   ar
    15     4     5   ar
    16     5     6   ar
    17     6     7   ar
    18     7    26    1
    19    26    27   ar
    20    27    28   ar
    21    28    29   ar
    22    29    30   ar
    23    30    31   ar
    24     7     8   ar
    25     8     9   ar
    26     9    10   ar
    27    14    15    1
    28    15    16    1
    29    16    17    1
    30    16    18    1
    31    18    12    1
    32    10     1   ar
    33    24    19    1
    34     9     4   ar
    35    31    26   ar
@<TRIPOS>MOLECULE
*****
 31 35 0 0 0
SMALL
GASTEIGER

@<TRIPOS>ATOM
      1 C         143.3831  138.8371  159.4301 C.ar    1  UNL1        0.2229
      2 N         142.8955  137.7085  158.5708 N.ar    1  UNL1       -0.1970
      3 C         143.0211  137.7937  157.0785 C.ar    1  UNL1        0.1555
      4 C         143.6343  139.0075  156.4455 C.ar    1  UNL1        0.1486
      5 N         143.7599  139.0927  154.9532 N.ar    1  UNL1       -0.2363
      6 C         144.3731  140.3065  154.3203 C.ar    1  UNL1        0.1181
      7 C         144.8607  141.4351  155.1797 C.ar    1  UNL1        0.1021
      8 N         144.7351  141.3500  156.6719 N.ar    1  UNL1       -0.2236
      9 C         144.1219  140.1362  157.3048 C.ar    1  UNL1        0.1857
     10 N         143.9963  140.0509  158.7972 N.ar    1  UNL1       -0.1929
     11 C         145.0984  140.0993  164.1698 C.3     1  UNL1        0.0339
     12 C         144.1151  139.3830  163.2923 C.3     1  UNL1        0.1350
     13 C         144.2407  139.4682  161.8000 C.3     1  UNL1        0.1231
     14 N         143.2574  138.7519  160.9225 N.pl3   1  UNL1       -0.2732
     15 C         142.1486  137.9503  161.5372 C.3     1  UNL1        0.1231
     16 C         142.0230  137.8651  163.0295 C.3     1  UNL1        0.1350
     17 C         140.9141  137.0636  163.6443 C.3     1  UNL1        0.0339
     18 O         143.0063  138.5815  163.9070 O.3     1  UNL1       -0.3552
     19 N         142.5335  136.6651  156.2191 N.pl3   1  UNL1       -0.2885
     20 C         143.4782  135.5766  155.8035 C.3     1  UNL1        0.1242
     21 C         142.9906  134.4480  154.9442 C.3     1  UNL1        0.1636
     22 O         141.5583  134.4078  154.5004 O.3     1  UNL1       -0.3502
     23 C         140.6135  135.4963  154.9161 C.3     1  UNL1        0.1618
     24 C         141.1011  136.6249  155.7754 C.3     1  UNL1        0.1039
     25 C         140.1564  137.7134  156.1911 C.3     1  UNL1        0.0241
     26 C         145.4739  142.6490  154.5467 C.ar    1  UNL1        0.0192
     27 C         146.9641  142.8197  154.5403 C.ar    1  UNL1        0.0015
     28 C         147.5773  144.0336  153.9073 C.ar    1  UNL1        0.0000
     29 C         146.7002  145.0767  153.2807 C.ar    1  UNL1        0.0000
     30 C         145.2099  144.9059  153.2870 C.ar    1  UNL1        0.0000
     31 C         144.5968  143.6921  153.9200 C.ar    1  UNL1        0.0015
@<TRIPOS>BOND
     1    12    11    1
     2    12    13    1
     3    13    14    1
     4    14     1    1
     5     1     2   ar
     6     2     3   ar
     7     3    19    1
     8    19    20    1
     9    20    21    1
    10    21    22    1
    11    22    23    1
    12    23    24    1
    13    24    25    1
    14     3     4   ar
    15     4     5   ar
    16     5     6   ar
    17     6     7   ar
    18     7    26    1
    19    26    27   ar
    20    27    28   ar
    21    28    29   ar
    22    29    30   ar
    23    30    31   ar
    24     7     8   ar
    25     8     9   ar
    26     9    10   ar
    27    14    15    1
    28    15    16    1
    29    16    17    1
    30    16    18    1
    31    18    12    1
    32    10     1   ar
    33    24    19    1
    34     9     4   ar
    35    31    26   ar
@<TRIPOS>MOLECULE
*****
 31 35 0 0 0
SMALL
GASTEIGER

@<TRIPOS>ATOM
      1 C         144.0610  140.9472  159.2985 C.ar    1  UNL1        0.2229
      2 N         144.3474  141.9477  158.2182 N.ar    1  UNL1       -0.1970
      3 C         144.2448  141.5453  156.7769 C.ar    1  UNL1        0.1555
      4 C         143.8557  140.1423  156.4157 C.ar    1  UNL1        0.1486
      5 N         143.7531  139.7399  154.9744 N.ar    1  UNL1       -0.2363
      6 C         143.3640  138.3370  154.6134 C.ar    1  UNL1        0.1181
      7 C         143.0775  137.3365  155.6936 C.ar    1  UNL1        0.1021
      8 N         143.1801  137.7389  157.1349 N.ar    1  UNL1       -0.2236
      9 C         143.5692  139.1418  157.4960 C.ar    1  UNL1        0.1857
     10 N         143.6719  139.5443  158.9374 N.ar    1  UNL1       -0.1929
     11 C         144.8143  139.6812  164.2814 C.3     1  UNL1        0.0339
     12 C         144.5403  140.7167  163.2313 C.3     1  UNL1        0.1350
     13 C         144.4376  140.3143  161.7900 C.3     1  UNL1        0.1231
     14 N         144.1636  141.3497  160.7399 N.pl3   1  UNL1       -0.2732
     15 C         143.9922  142.7876  161.1311 C.3     1  UNL1        0.1231
     16 C         144.0949  143.1900  162.5724 C.3     1  UNL1        0.1350
     17 C         143.9235  144.6280  162.9637 C.3     1  UNL1        0.0339
     18 O         144.3689  142.1546  163.6225 O.3     1  UNL1       -0.3552
     19 N         144.5312  142.5458  155.6966 N.pl3   1  UNL1       -0.2885
     20 C         143.4279  143.4113  155.1642 C.3     1  UNL1        0.1242
     21 C         143.7144  144.4118  154.0839 C.3     1  UNL1        0.1636
     22 O         145.1042  144.5468  153.5361 O.3     1  UNL1       -0.3502
     23 C         146.2076  143.6812  154.0685 C.3     1  UNL1        0.1618
     24 C         145.9211  142.6807  155.1487 C.3     1  UNL1        0.1039
     25 C         147.0245  141.8152  155.6811 C.3     1  UNL1        0.0241
     26 C         142.6884  135.9335  155.3325 C.ar    1  UNL1        0.0192
     27 C         142.6673  134.8663  156.3862 C.ar    1  UNL1        0.0015
     28 C         142.2782  133.4633  156.0251 C.ar    1  UNL1        0.0000
     29 C         141.9102  133.1277  154.6102 C.ar    1  UNL1        0.0000
     30 C         141.9313  134.1951  153.5564 C.ar    1  UNL1        0.0000
     31 C         142.3204  135.5979  153.9176 C.ar    1  UNL1        0.0015
@<TRIPOS>BOND
     1    12    11    1
     2    12    13    1
     3    13    14    1
     4    14     1    1
     5     1     2   ar
     6     2     3   ar
     7     3    19    1
     8    19    20    1
     9    20    21    1
    10    21    22    1
    11    22    23    1
    12    23    24    1
    13    24    25    1
    14     3     4   ar
    15     4     5   ar
    16     5     6   ar
    17     6     7   ar
    18     7    26    1
    19    26    27   ar
    20    27    28   ar
    21    28    29   ar
    22    29    30   ar
    23    30    31   ar
    24     7     8   ar
    25     8     9   ar
    26     9    10   ar
    27    14    15    1
    28    15    16    1
    29    16    17    1
    30    16    18    1
    31    18    12    1
    32    10     1   ar
    33    24    19    1
    34     9     4   ar
    35    31    26   ar
@<TRIPOS>MOLECULE
*****
 31 35 0 0 0
SMALL
GASTEIGER

@<TRIPOS>ATOM
      1 C         141.7959  139.7979  164.3893 C.ar    1  UNL1        0.2229
      2 N         141.0989  141.1178  164.2417 N.ar    1  UNL1       -0.1970
      3 C         140.5855  141.5490  162.8999 C.ar    1  UNL1        0.1555
      4 C         140.7693  140.6603  161.7055 C.ar    1  UNL1        0.1486
      5 N         140.2560  141.0915  160.3637 N.ar    1  UNL1       -0.2363
      6 C         140.4397  140.2027  159.1695 C.ar    1  UNL1        0.1181
      7 C         141.1368  138.8828  159.3170 C.ar    1  UNL1        0.1021
      8 N         141.6501  138.4515  160.6588 N.ar    1  UNL1       -0.2236
      9 C         141.4664  139.3403  161.8531 C.ar    1  UNL1        0.1857
     10 N         141.9797  138.9091  163.1950 N.ar    1  UNL1       -0.1929
     11 C         141.6497  140.1052  169.5743 C.3     1  UNL1        0.0339
     12 C         142.2361  139.5203  168.3236 C.3     1  UNL1        0.1350
     13 C         141.7228  139.9515  166.9818 C.3     1  UNL1        0.1231
     14 N         142.3093  139.3667  165.7312 N.pl3   1  UNL1       -0.2732
     15 C         143.4090  138.3507  165.8224 C.3     1  UNL1        0.1231
     16 C         143.9222  137.9195  167.1643 C.3     1  UNL1        0.1350
     17 C         145.0220  136.9035  167.2555 C.3     1  UNL1        0.0339
     18 O         143.3358  138.5044  168.4149 O.3     1  UNL1       -0.3552
     19 N         139.8885  142.8690  162.7523 N.pl3   1  UNL1       -0.2885
     20 C         140.6682  144.0894  162.3618 C.3     1  UNL1        0.1242
     21 C         139.9711  145.4094  162.2143 C.3     1  UNL1        0.1636
     22 O         138.4943  145.5090  162.4572 O.3     1  UNL1       -0.3502
     23 C         137.7145  144.2885  162.8478 C.3     1  UNL1        0.1618
     24 C         138.4116  142.9685  162.9953 C.3     1  UNL1        0.1039
     25 C         137.6319  141.7481  163.3859 C.3     1  UNL1        0.0241
     26 C         141.3205  137.9940  158.1227 C.ar    1  UNL1        0.0192
     27 C         140.1829  137.7726  157.1704 C.ar    1  UNL1        0.0015
     28 C         140.3667  136.8838  155.9761 C.ar    1  UNL1        0.0000
     29 C         141.6880  136.2165  155.7340 C.ar    1  UNL1        0.0000
     30 C         142.8257  136.4379  156.6863 C.ar    1  UNL1        0.0000
     31 C         142.6419  137.3266  157.8806 C.ar    1  UNL1        0.0015
@<TRIPOS>BOND
     1    12    11    1
     2    12    13    1
     3    13    14    1
     4    14     1    1
     5     1     2   ar
     6     2     3   ar
     7     3    19    1
     8    19    20    1
     9    20    21    1
    10    21    22    1
    11    22    23    1
    12    23    24    1
    13    24    25    1
    14     3     4   ar
    15     4     5   ar
    16     5     6   ar
    17     6     7   ar
    18     7    26    1
    19    26    27   ar
    20    27    28   ar
    21    28    29   ar
    22    29    30   ar
    23    30    31   ar
    24     7     8   ar
    25     8     9   ar
    26     9    10   ar
    27    14    15    1
    28    15    16    1
    29    16    17    1
    30    16    18    1
    31    18    12    1
    32    10     1   ar
    33    24    19    1
    34     9     4   ar
    35    31    26   ar
@<TRIPOS>MOLECULE
*****
 31 35 0 0 0
SMALL
GASTEIGER

@<TRIPOS>ATOM
      1 C         141.7874  139.8076  164.3564 C.ar    1  UNL1        0.2229
      2 N         141.0846  141.1237  164.2014 N.ar    1  UNL1       -0.1970
      3 C         140.5725  141.5467  162.8565 C.ar    1  UNL1        0.1555
      4 C         140.7633  140.6537  161.6665 C.ar    1  UNL1        0.1486
      5 N         140.2512  141.0767  160.3216 N.ar    1  UNL1       -0.2363
      6 C         140.4420  140.1837  159.1316 C.ar    1  UNL1        0.1181
      7 C         141.1448  138.8676  159.2866 C.ar    1  UNL1        0.1021
      8 N         141.6568  138.4446  160.6315 N.ar    1  UNL1       -0.2236
      9 C         141.4661  139.3376  161.8214 C.ar    1  UNL1        0.1857
     10 N         141.9781  138.9146  163.1664 N.ar    1  UNL1       -0.1929
     11 C         145.0235  136.9446  167.2426 C.3     1  UNL1        0.0339
     12 C         143.9175  137.9531  167.1444 C.3     1  UNL1        0.1350
     13 C         143.4054  138.3761  165.7995 C.3     1  UNL1        0.1231
     14 N         142.2994  139.3846  165.7014 N.pl3   1  UNL1       -0.2732
     15 C         141.7055  139.9701  166.9481 C.3     1  UNL1        0.1231
     16 C         142.2176  139.5471  168.2930 C.3     1  UNL1        0.1350
     17 C         141.6236  140.1326  169.5398 C.3     1  UNL1        0.0339
     18 O         143.3236  138.5386  168.3912 O.3     1  UNL1       -0.3552
     19 N         139.8697  142.8628  162.7016 N.pl3   1  UNL1       -0.2885
     20 C         140.6350  144.0740  162.2573 C.3     1  UNL1        0.1242
     21 C         139.9322  145.3901  162.1024 C.3     1  UNL1        0.1636
     22 O         138.4641  145.4950  162.3917 O.3     1  UNL1       -0.3502
     23 C         137.6988  144.2838  162.8360 C.3     1  UNL1        0.1618
     24 C         138.4016  142.9677  162.9909 C.3     1  UNL1        0.1039
     25 C         137.6363  141.7565  163.4352 C.3     1  UNL1        0.0241
     26 C         141.3355  137.9745  158.0965 C.ar    1  UNL1        0.0192
     27 C         142.6580  137.3058  157.8650 C.ar    1  UNL1        0.0015
     28 C         142.8488  136.4128  156.6749 C.ar    1  UNL1        0.0000
     29 C         141.7169  136.1885  155.7165 C.ar    1  UNL1        0.0000
     30 C         140.3943  136.8572  155.9481 C.ar    1  UNL1        0.0000
     31 C         140.2036  137.7502  157.1381 C.ar    1  UNL1        0.0015
@<TRIPOS>BOND
     1    12    11    1
     2    12    13    1
     3    13    14    1
     4    14     1    1
     5     1     2   ar
     6     2     3   ar
     7     3    19    1
     8    19    20    1
     9    20    21    1
    10    21    22    1
    11    22    23    1
    12    23    24    1
    13    24    25    1
    14     3     4   ar
    15     4     5   ar
    16     5     6   ar
    17     6     7   ar
    18     7    26    1
    19    26    27   ar
    20    27    28   ar
    21    28    29   ar
    22    29    30   ar
    23    30    31   ar
    24     7     8   ar
    25     8     9   ar
    26     9    10   ar
    27    14    15    1
    28    15    16    1
    29    16    17    1
    30    16    18    1
    31    18    12    1
    32    10     1   ar
    33    24    19    1
    34     9     4   ar
    35    31    26   ar
@<TRIPOS>MOLECULE
*****
 31 35 0 0 0
SMALL
GASTEIGER

@<TRIPOS>ATOM
      1 C         140.1306  144.5799  159.8235 C.ar    1  UNL1        0.2229
      2 N         139.6129  143.2984  159.2406 N.ar    1  UNL1       -0.1970
      3 C         139.2815  143.2187  157.7799 C.ar    1  UNL1        0.1555
      4 C         139.4679  144.4206  156.9019 C.ar    1  UNL1        0.1486
      5 N         139.1366  144.3409  155.4411 N.ar    1  UNL1       -0.2363
      6 C         139.3230  145.5427  154.5632 C.ar    1  UNL1        0.1181
      7 C         139.8407  146.8242  155.1460 C.ar    1  UNL1        0.1021
      8 N         140.1721  146.9039  156.6068 N.ar    1  UNL1       -0.2236
      9 C         139.9857  145.7021  157.4847 C.ar    1  UNL1        0.1857
     10 N         140.3170  145.7817  158.9455 N.ar    1  UNL1       -0.1929
     11 C         143.6544  144.9354  163.6256 C.3     1  UNL1        0.0339
     12 C         142.2239  144.8373  163.1853 C.3     1  UNL1        0.1350
     13 C         141.8925  144.7576  161.7246 C.3     1  UNL1        0.1231
     14 N         140.4619  144.6595  161.2843 N.pl3   1  UNL1       -0.2732
     15 C         139.3627  144.6411  162.3047 C.3     1  UNL1        0.1231
     16 C         139.6941  144.7207  163.7655 C.3     1  UNL1        0.1350
     17 C         138.5949  144.7022  164.7860 C.3     1  UNL1        0.0339
     18 O         141.1247  144.8188  164.2058 O.3     1  UNL1       -0.3552
     19 N         138.7638  141.9372  157.1971 N.pl3   1  UNL1       -0.2885
     20 C         137.2939  141.7639  156.9536 C.3     1  UNL1        0.1242
     21 C         136.7762  140.4824  156.3708 C.3     1  UNL1        0.1636
     22 O         137.7283  139.3742  156.0314 O.3     1  UNL1       -0.3502
     23 C         139.1983  139.5474  156.2749 C.3     1  UNL1        0.1618
     24 C         139.7160  140.8289  156.8577 C.3     1  UNL1        0.1039
     25 C         141.1859  141.0023  157.1012 C.3     1  UNL1        0.0241
     26 C         140.0271  148.0261  154.2680 C.ar    1  UNL1        0.0192
     27 C         140.8056  147.9087  152.9913 C.ar    1  UNL1        0.0015
     28 C         140.9920  149.1106  152.1132 C.ar    1  UNL1        0.0000
     29 C         140.3999  150.4298  152.5121 C.ar    1  UNL1        0.0000
     30 C         139.6214  150.5472  153.7889 C.ar    1  UNL1        0.0000
     31 C         139.4350  149.3453  154.6668 C.ar    1  UNL1        0.0015
@<TRIPOS>BOND
     1    12    11    1
     2    12    13    1
     3    13    14    1
     4    14     1    1
     5     1     2   ar
     6     2     3   ar
     7     3    19    1
     8    19    20    1
     9    20    21    1
    10    21    22    1
    11    22    23    1
    12    23    24    1
    13    24    25    1
    14     3     4   ar
    15     4     5   ar
    16     5     6   ar
    17     6     7   ar
    18     7    26    1
    19    26    27   ar
    20    27    28   ar
    21    28    29   ar
    22    29    30   ar
    23    30    31   ar
    24     7     8   ar
    25     8     9   ar
    26     9    10   ar
    27    14    15    1
    28    15    16    1
    29    16    17    1
    30    16    18    1
    31    18    12    1
    32    10     1   ar
    33    24    19    1
    34     9     4   ar
    35    31    26   ar
