@<TRIPOS>MOLECULE
*****
 24 27 0 0 0
SMALL
GASTEIGER

@<TRIPOS>ATOM
      1 C         138.7086  139.8873  169.2691 C.3     1  UNL1        0.0540
      2 C         139.3773  139.9508  167.9279 C.ar    1  UNL1        0.0805
      3 N         138.9237  139.2488  166.6824 N.ar    1  UNL1       -0.1685
      4 N         139.8832  139.5915  165.5815 N.ar    1  UNL1       -0.2167
      5 C         140.9299  140.5053  166.1467 C.ar    1  UNL1        0.0636
      6 C         142.0862  141.0937  165.3939 C.3     1  UNL1        0.0522
      7 C         140.6173  140.7273  167.5968 C.ar    1  UNL1        0.0289
      8 C         139.8091  139.1057  164.1643 C.ar    1  UNL1        0.1636
      9 N         140.7548  138.0446  163.6847 N.ar    1  UNL1       -0.2051
     10 C         140.6807  137.5589  162.2675 C.ar    1  UNL1        0.2000
     11 N         139.6610  138.1341  161.3298 N.ar    1  UNL1       -0.2271
     12 C         138.7153  139.1951  161.8093 C.ar    1  UNL1        0.0769
     13 C         138.7894  139.6809  163.2266 C.ar    1  UNL1        0.0444
     14 C         137.7331  140.7295  163.4130 C.3     1  UNL1        0.1002
     15 N         137.0062  140.8917  162.1109 N.3     1  UNL1       -0.2886
     16 C         137.6132  139.9434  161.1198 C.3     1  UNL1        0.1153
     17 H         137.1038  141.8506  161.7771 H       1  UNL1        0.1239
     18 C         141.4061  141.5768  168.5488 C.ar    1  UNL1        0.0025
     19 C         140.7853  142.8018  169.1520 C.ar    1  UNL1        0.0024
     20 C         141.5742  143.6512  170.1038 C.ar    1  UNL1        0.0296
     21 C         142.9840  143.2756  170.4526 C.ar    1  UNL1        0.1401
     22 F         143.7728  144.1250  171.4044 F       1  UNL1       -0.2042
     23 C         143.6048  142.0506  169.8494 C.ar    1  UNL1        0.0296
     24 C         142.8158  141.2011  168.8975 C.ar    1  UNL1        0.0024
@<TRIPOS>BOND
     1     1     2    1
     2     2     3   ar
     3     3     4   ar
     4     4     8    1
     5     8     9   ar
     6     9    10   ar
     7    10    11   ar
     8    11    12   ar
     9    12    13   ar
    10    13    14    1
    11    14    15    1
    12    15    16    1
    13     4     5   ar
    14     5     6    1
    15     5     7   ar
    16     7    18    1
    17    18    19   ar
    18    19    20   ar
    19    20    21   ar
    20    21    22    1
    21    21    23   ar
    22    23    24   ar
    23     7     2   ar
    24    24    18   ar
    25    13     8   ar
    26    16    12    1
    27    15    17    1
@<TRIPOS>MOLECULE
*****
 24 27 0 0 0
SMALL
GASTEIGER

@<TRIPOS>ATOM
      1 C         144.7248  139.9853  164.7039 C.3     1  UNL1        0.0540
      2 C         143.4538  140.7506  164.4827 C.ar    1  UNL1        0.0805
      3 N         142.9227  141.2140  163.1586 N.ar    1  UNL1       -0.1685
      4 N         141.6314  141.9366  163.4044 N.ar    1  UNL1       -0.2167
      5 C         141.3644  141.9198  164.8803 C.ar    1  UNL1        0.0636
      6 C         140.1792  142.5289  165.5689 C.3     1  UNL1        0.0522
      7 C         142.4907  141.1867  165.5467 C.ar    1  UNL1        0.0289
      8 C         140.7600  142.5657  162.3579 C.ar    1  UNL1        0.1636
      9 N         140.0359  141.7030  161.3671 N.ar    1  UNL1       -0.2051
     10 C         139.1646  142.3319  160.3208 C.ar    1  UNL1        0.2000
     11 N         139.0173  143.8236  160.2650 N.ar    1  UNL1       -0.2271
     12 C         139.7413  144.6863  161.2557 C.ar    1  UNL1        0.0769
     13 C         140.6127  144.0574  162.3021 C.ar    1  UNL1        0.0444
     14 C         141.1986  145.1558  163.1389 C.3     1  UNL1        0.1002
     15 N         140.6894  146.4636  162.6096 N.3     1  UNL1       -0.2886
     16 C         139.7887  146.1735  161.4457 C.3     1  UNL1        0.1153
     17 H         141.4723  147.0424  162.3055 H       1  UNL1        0.1239
     18 C         142.6294  140.9342  167.0188 C.ar    1  UNL1        0.0025
     19 C         143.0531  142.0448  167.9337 C.ar    1  UNL1        0.0024
     20 C         143.1919  141.7923  169.4057 C.ar    1  UNL1        0.0296
     21 C         142.9069  140.4290  169.9630 C.ar    1  UNL1        0.1401
     22 F         143.0457  140.1765  171.4349 F       1  UNL1       -0.2042
     23 C         142.4832  139.3184  169.0481 C.ar    1  UNL1        0.0296
     24 C         142.3445  139.5710  167.5760 C.ar    1  UNL1        0.0024
@<TRIPOS>BOND
     1     1     2    1
     2     2     3   ar
     3     3     4   ar
     4     4     8    1
     5     8     9   ar
     6     9    10   ar
     7    10    11   ar
     8    11    12   ar
     9    12    13   ar
    10    13    14    1
    11    14    15    1
    12    15    16    1
    13     4     5   ar
    14     5     6    1
    15     5     7   ar
    16     7    18    1
    17    18    19   ar
    18    19    20   ar
    19    20    21   ar
    20    21    22    1
    21    21    23   ar
    22    23    24   ar
    23     7     2   ar
    24    24    18   ar
    25    13     8   ar
    26    16    12    1
    27    15    17    1
@<TRIPOS>MOLECULE
*****
 24 27 0 0 0
SMALL
GASTEIGER

@<TRIPOS>ATOM
      1 C         138.0604  139.4246  165.7120 C.3     1  UNL1        0.0540
      2 C         139.4637  139.6616  165.2380 C.ar    1  UNL1        0.0805
      3 N         140.0365  139.2214  163.9235 N.ar    1  UNL1       -0.1685
      4 N         141.4674  139.6681  163.8685 N.ar    1  UNL1       -0.2167
      5 C         141.7789  140.3845  165.1490 C.ar    1  UNL1        0.0636
      6 C         143.0972  140.9973  165.5183 C.3     1  UNL1        0.0522
      7 C         140.5405  140.3804  165.9954 C.ar    1  UNL1        0.0289
      8 C         142.4196  139.4389  162.7324 C.ar    1  UNL1        0.1636
      9 N         142.9781  138.0684  162.4867 N.ar    1  UNL1       -0.2051
     10 C         143.9302  137.8391  161.3508 C.ar    1  UNL1        0.2000
     11 N         144.3241  138.9801  160.4603 N.ar    1  UNL1       -0.2271
     12 C         143.7658  140.3505  160.7059 C.ar    1  UNL1        0.0769
     13 C         142.8135  140.5798  161.8419 C.ar    1  UNL1        0.0444
     14 C         142.4289  142.0297  161.8389 C.3     1  UNL1        0.1002
     15 N         143.1435  142.6964  160.7010 N.3     1  UNL1       -0.2886
     16 C         143.9697  141.6586  160.0007 C.3     1  UNL1        0.1153
     17 H         143.7475  143.4368  161.0578 H       1  UNL1        0.1239
     18 C         140.4032  140.9885  167.3598 C.ar    1  UNL1        0.0025
     19 C         140.1242  140.1140  168.5461 C.ar    1  UNL1        0.0024
     20 C         139.9869  140.7221  169.9104 C.ar    1  UNL1        0.0296
     21 C         140.1285  142.2048  170.0884 C.ar    1  UNL1        0.1401
     22 F         139.9912  142.8129  171.4526 F       1  UNL1       -0.2042
     23 C         140.4075  143.0793  168.9020 C.ar    1  UNL1        0.0296
     24 C         140.5448  142.4712  167.5378 C.ar    1  UNL1        0.0024
@<TRIPOS>BOND
     1     1     2    1
     2     2     3   ar
     3     3     4   ar
     4     4     8    1
     5     8     9   ar
     6     9    10   ar
     7    10    11   ar
     8    11    12   ar
     9    12    13   ar
    10    13    14    1
    11    14    15    1
    12    15    16    1
    13     4     5   ar
    14     5     6    1
    15     5     7   ar
    16     7    18    1
    17    18    19   ar
    18    19    20   ar
    19    20    21   ar
    20    21    22    1
    21    21    23   ar
    22    23    24   ar
    23     7     2   ar
    24    24    18   ar
    25    13     8   ar
    26    16    12    1
    27    15    17    1
@<TRIPOS>MOLECULE
*****
 24 27 0 0 0
SMALL
GASTEIGER

@<TRIPOS>ATOM
      1 C         142.6039  138.3355  165.4276 C.3     1  UNL1        0.0540
      2 C         141.8434  139.5688  165.0393 C.ar    1  UNL1        0.0805
      3 N         141.4210  139.9432  163.6496 N.ar    1  UNL1       -0.1685
      4 N         140.6884  141.2500  163.7241 N.ar    1  UNL1       -0.2167
      5 C         140.6579  141.6832  165.1599 C.ar    1  UNL1        0.0636
      6 C         140.0248  142.9355  165.6897 C.3     1  UNL1        0.0522
      7 C         141.3718  140.6441  165.9727 C.ar    1  UNL1        0.0289
      8 C         140.0909  141.9932  162.5661 C.ar    1  UNL1        0.1636
      9 N         138.7907  141.5375  161.9729 N.ar    1  UNL1       -0.2051
     10 C         138.1933  142.2805  160.8150 C.ar    1  UNL1        0.2000
     11 N         138.8960  143.4794  160.2502 N.ar    1  UNL1       -0.2271
     12 C         140.1962  143.9351  160.8434 C.ar    1  UNL1        0.0769
     13 C         140.7936  143.1920  162.0014 C.ar    1  UNL1        0.0444
     14 C         142.0780  143.8708  162.3748 C.3     1  UNL1        0.1002
     15 N         142.2744  145.0335  161.4477 N.3     1  UNL1       -0.2886
     16 C         141.1113  145.0732  160.5012 C.3     1  UNL1        0.1153
     17 H         143.1423  144.9165  160.9248 H       1  UNL1        0.1239
     18 C         141.5778  140.6751  167.4582 C.ar    1  UNL1        0.0025
     19 C         140.5930  140.0001  168.3663 C.ar    1  UNL1        0.0024
     20 C         140.7991  140.0311  169.8516 C.ar    1  UNL1        0.0296
     21 C         141.9901  140.7370  170.4291 C.ar    1  UNL1        0.1401
     22 F         142.1962  140.7680  171.9145 F       1  UNL1       -0.2042
     23 C         142.9749  141.4120  169.5210 C.ar    1  UNL1        0.0296
     24 C         142.7687  141.3810  168.0356 C.ar    1  UNL1        0.0024
@<TRIPOS>BOND
     1     1     2    1
     2     2     3   ar
     3     3     4   ar
     4     4     8    1
     5     8     9   ar
     6     9    10   ar
     7    10    11   ar
     8    11    12   ar
     9    12    13   ar
    10    13    14    1
    11    14    15    1
    12    15    16    1
    13     4     5   ar
    14     5     6    1
    15     5     7   ar
    16     7    18    1
    17    18    19   ar
    18    19    20   ar
    19    20    21   ar
    20    21    22    1
    21    21    23   ar
    22    23    24   ar
    23     7     2   ar
    24    24    18   ar
    25    13     8   ar
    26    16    12    1
    27    15    17    1
@<TRIPOS>MOLECULE
*****
 24 27 0 0 0
SMALL
GASTEIGER

@<TRIPOS>ATOM
      1 C         138.0114  139.4200  165.7634 C.3     1  UNL1        0.0540
      2 C         138.8295  140.5576  165.2280 C.ar    1  UNL1        0.0805
      3 N         138.4885  141.4055  164.0385 N.ar    1  UNL1       -0.1685
      4 N         139.5805  142.4189  163.8634 N.ar    1  UNL1       -0.2167
      5 C         140.5963  142.1974  164.9446 C.ar    1  UNL1        0.0636
      6 C         141.8551  142.9875  165.1470 C.3     1  UNL1        0.0522
      7 C         140.1321  141.0470  165.7880 C.ar    1  UNL1        0.0289
      8 C         139.6453  143.4695  162.7946 C.ar    1  UNL1        0.1636
      9 N         139.5290  144.9196  163.1604 N.ar    1  UNL1       -0.2051
     10 C         139.5938  145.9701  162.0917 C.ar    1  UNL1        0.2000
     11 N         139.7750  145.5707  160.6573 N.ar    1  UNL1       -0.2271
     12 C         139.8913  144.1206  160.2915 C.ar    1  UNL1        0.0769
     13 C         139.8265  143.0700  161.3602 C.ar    1  UNL1        0.0444
     14 C         139.9697  141.7298  160.7020 C.3     1  UNL1        0.1002
     15 N         140.1231  141.9521  159.2265 N.3     1  UNL1       -0.2886
     16 C         140.0746  143.4297  158.9728 C.3     1  UNL1        0.1153
     17 H         139.3640  141.4899  158.7261 H       1  UNL1        0.1239
     18 C         140.8454  140.4849  166.9818 C.ar    1  UNL1        0.0025
     19 C         142.1162  139.7091  166.7996 C.ar    1  UNL1        0.0024
     20 C         142.8294  139.1470  167.9934 C.ar    1  UNL1        0.0296
     21 C         142.2719  139.3606  169.3695 C.ar    1  UNL1        0.1401
     22 F         142.9851  138.7985  170.5633 F       1  UNL1       -0.2042
     23 C         141.0011  140.1364  169.5517 C.ar    1  UNL1        0.0296
     24 C         140.2879  140.6985  168.3578 C.ar    1  UNL1        0.0024
@<TRIPOS>BOND
     1     1     2    1
     2     2     3   ar
     3     3     4   ar
     4     4     8    1
     5     8     9   ar
     6     9    10   ar
     7    10    11   ar
     8    11    12   ar
     9    12    13   ar
    10    13    14    1
    11    14    15    1
    12    15    16    1
    13     4     5   ar
    14     5     6    1
    15     5     7   ar
    16     7    18    1
    17    18    19   ar
    18    19    20   ar
    19    20    21   ar
    20    21    22    1
    21    21    23   ar
    22    23    24   ar
    23     7     2   ar
    24    24    18   ar
    25    13     8   ar
    26    16    12    1
    27    15    17    1
@<TRIPOS>MOLECULE
*****
 24 27 0 0 0
SMALL
GASTEIGER

@<TRIPOS>ATOM
      1 C         137.7968  138.9009  166.5824 C.3     1  UNL1        0.0540
      2 C         138.6133  139.8218  165.7250 C.ar    1  UNL1        0.0805
      3 N         138.1865  140.4181  164.4165 N.ar    1  UNL1       -0.1685
      4 N         139.3095  141.2730  163.9084 N.ar    1  UNL1       -0.2167
      5 C         140.4304  141.2050  164.9029 C.ar    1  UNL1        0.0636
      6 C         141.7498  141.9101  164.7938 C.3     1  UNL1        0.0522
      7 C         140.0001  140.3082  166.0256 C.ar    1  UNL1        0.0289
      8 C         139.3113  142.0581  162.6302 C.ar    1  UNL1        0.1636
      9 N         139.0775  141.3620  161.3222 N.ar    1  UNL1       -0.2051
     10 C         139.0793  142.1469  160.0441 C.ar    1  UNL1        0.2000
     11 N         139.3149  143.6280  160.0738 N.ar    1  UNL1       -0.2271
     12 C         139.5486  144.3241  161.3818 C.ar    1  UNL1        0.0769
     13 C         139.5468  143.5391  162.6600 C.ar    1  UNL1        0.0444
     14 C         139.8039  144.4920  163.7895 C.3     1  UNL1        0.1002
     15 N         139.9646  145.8659  163.2094 N.3     1  UNL1       -0.2886
     16 C         139.8069  145.7622  161.7213 C.3     1  UNL1        0.1153
     17 H         140.8901  146.2307  163.4348 H       1  UNL1        0.1239
     18 C         140.8139  139.9589  167.2364 C.ar    1  UNL1        0.0025
     19 C         142.1690  139.3364  167.0753 C.ar    1  UNL1        0.0024
     20 C         142.9827  138.9872  168.2860 C.ar    1  UNL1        0.0296
     21 C         142.4413  139.2606  169.6579 C.ar    1  UNL1        0.1401
     22 F         143.2549  138.9114  170.8686 F       1  UNL1       -0.2042
     23 C         141.0861  139.8832  169.8190 C.ar    1  UNL1        0.0296
     24 C         140.2724  140.2323  168.6082 C.ar    1  UNL1        0.0024
@<TRIPOS>BOND
     1     1     2    1
     2     2     3   ar
     3     3     4   ar
     4     4     8    1
     5     8     9   ar
     6     9    10   ar
     7    10    11   ar
     8    11    12   ar
     9    12    13   ar
    10    13    14    1
    11    14    15    1
    12    15    16    1
    13     4     5   ar
    14     5     6    1
    15     5     7   ar
    16     7    18    1
    17    18    19   ar
    18    19    20   ar
    19    20    21   ar
    20    21    22    1
    21    21    23   ar
    22    23    24   ar
    23     7     2   ar
    24    24    18   ar
    25    13     8   ar
    26    16    12    1
    27    15    17    1
@<TRIPOS>MOLECULE
*****
 24 27 0 0 0
SMALL
GASTEIGER

@<TRIPOS>ATOM
      1 C         143.6286  138.4761  165.8035 C.3     1  UNL1        0.0540
      2 C         143.1542  139.0795  164.5147 C.ar    1  UNL1        0.0805
      3 N         144.0255  139.5486  163.3874 N.ar    1  UNL1       -0.1685
      4 N         143.1350  140.0787  162.3030 N.ar    1  UNL1       -0.2167
      5 C         141.7134  139.9371  162.7600 C.ar    1  UNL1        0.0636
      6 C         140.4940  140.3421  161.9860 C.3     1  UNL1        0.0522
      7 C         141.7253  139.3196  164.1269 C.ar    1  UNL1        0.0289
      8 C         143.5868  140.6500  160.9917 C.ar    1  UNL1        0.1636
      9 N         144.1867  142.0239  160.9390 N.ar    1  UNL1       -0.2051
     10 C         144.6385  142.5952  159.6278 C.ar    1  UNL1        0.2000
     11 N         144.4904  141.7928  158.3691 N.ar    1  UNL1       -0.2271
     12 C         143.8906  140.4190  158.4218 C.ar    1  UNL1        0.0769
     13 C         143.4388  139.8476  159.7330 C.ar    1  UNL1        0.0444
     14 C         142.8884  138.4761  159.4760 C.3     1  UNL1        0.1002
     15 N         143.0001  138.1998  158.0059 N.3     1  UNL1       -0.2886
     16 C         143.6195  139.4006  157.3543 C.3     1  UNL1        0.1153
     17 H         142.0735  138.0326  157.6138 H       1  UNL1        0.1239
     18 C         140.5197  138.9986  164.9598 C.ar    1  UNL1        0.0025
     19 C         139.7328  137.7502  164.6906 C.ar    1  UNL1        0.0024
     20 C         138.5274  137.4293  165.5234 C.ar    1  UNL1        0.0296
     21 C         138.1087  138.3566  166.6256 C.ar    1  UNL1        0.1401
     22 F         136.9033  138.0357  167.4585 F       1  UNL1       -0.2042
     23 C         138.8956  139.6050  166.8948 C.ar    1  UNL1        0.0296
     24 C         140.1011  139.9259  166.0619 C.ar    1  UNL1        0.0024
@<TRIPOS>BOND
     1     1     2    1
     2     2     3   ar
     3     3     4   ar
     4     4     8    1
     5     8     9   ar
     6     9    10   ar
     7    10    11   ar
     8    11    12   ar
     9    12    13   ar
    10    13    14    1
    11    14    15    1
    12    15    16    1
    13     4     5   ar
    14     5     6    1
    15     5     7   ar
    16     7    18    1
    17    18    19   ar
    18    19    20   ar
    19    20    21   ar
    20    21    22    1
    21    21    23   ar
    22    23    24   ar
    23     7     2   ar
    24    24    18   ar
    25    13     8   ar
    26    16    12    1
    27    15    17    1
@<TRIPOS>MOLECULE
*****
 24 27 0 0 0
SMALL
GASTEIGER

@<TRIPOS>ATOM
      1 C         141.7569  142.8618  162.6430 C.3     1  UNL1        0.0540
      2 C         141.9997  142.1062  163.9158 C.ar    1  UNL1        0.0805
      3 N         141.9275  142.6705  165.3037 N.ar    1  UNL1       -0.1685
      4 N         142.2406  141.5666  166.2699 N.ar    1  UNL1       -0.2167
      5 C         142.5063  140.3200  165.4791 C.ar    1  UNL1        0.0636
      6 C         142.8590  138.9760  166.0440 C.3     1  UNL1        0.0522
      7 C         142.3575  140.6535  164.0242 C.ar    1  UNL1        0.0289
      8 C         142.2809  141.6880  167.7644 C.ar    1  UNL1        0.1636
      9 N         143.3866  142.4568  168.4250 N.ar    1  UNL1       -0.2051
     10 C         143.4270  142.5782  169.9194 C.ar    1  UNL1        0.2000
     11 N         142.3616  141.9308  170.7535 N.ar    1  UNL1       -0.2271
     12 C         141.2558  141.1620  170.0931 C.ar    1  UNL1        0.0769
     13 C         141.2154  141.0406  168.5985 C.ar    1  UNL1        0.0444
     14 C         140.0108  140.2254  168.2320 C.3     1  UNL1        0.1002
     15 N         139.3067  139.8430  169.5000 N.3     1  UNL1       -0.2886
     16 C         140.0761  140.4218  170.6502 C.3     1  UNL1        0.1153
     17 H         139.2714  138.8271  169.5835 H       1  UNL1        0.1239
     18 C         142.5352  139.7013  162.8789 C.ar    1  UNL1        0.0025
     19 C         141.3372  139.0595  162.2442 C.ar    1  UNL1        0.0024
     20 C         141.5150  138.1075  161.0989 C.ar    1  UNL1        0.0296
     21 C         142.8908  137.7971  160.5881 C.ar    1  UNL1        0.1401
     22 F         143.0686  136.8450  159.4428 F       1  UNL1       -0.2042
     23 C         144.0888  138.4389  161.2228 C.ar    1  UNL1        0.0296
     24 C         143.9110  139.3910  162.3682 C.ar    1  UNL1        0.0024
@<TRIPOS>BOND
     1     1     2    1
     2     2     3   ar
     3     3     4   ar
     4     4     8    1
     5     8     9   ar
     6     9    10   ar
     7    10    11   ar
     8    11    12   ar
     9    12    13   ar
    10    13    14    1
    11    14    15    1
    12    15    16    1
    13     4     5   ar
    14     5     6    1
    15     5     7   ar
    16     7    18    1
    17    18    19   ar
    18    19    20   ar
    19    20    21   ar
    20    21    22    1
    21    21    23   ar
    22    23    24   ar
    23     7     2   ar
    24    24    18   ar
    25    13     8   ar
    26    16    12    1
    27    15    17    1
@<TRIPOS>MOLECULE
*****
 24 27 0 0 0
SMALL
GASTEIGER

@<TRIPOS>ATOM
      1 C         145.0844  140.4005  164.3063 C.3     1  UNL1        0.0540
      2 C         143.8507  141.2104  164.0379 C.ar    1  UNL1        0.0805
      3 N         143.4293  141.7605  162.7076 N.ar    1  UNL1       -0.1685
      4 N         142.1400  142.5026  162.9003 N.ar    1  UNL1       -0.2167
      5 C         141.7646  142.4111  164.3496 C.ar    1  UNL1        0.0636
      6 C         140.5459  143.0126  164.9845 C.3     1  UNL1        0.0522
      7 C         142.8219  141.6125  165.0527 C.ar    1  UNL1        0.0289
      8 C         141.3625  143.2117  161.8312 C.ar    1  UNL1        0.1636
      9 N         141.7023  144.6276  161.4709 N.ar    1  UNL1       -0.2051
     10 C         140.9249  145.3367  160.4020 C.ar    1  UNL1        0.2000
     11 N         139.8077  144.6300  159.6933 N.ar    1  UNL1       -0.2271
     12 C         139.4679  143.2141  160.0535 C.ar    1  UNL1        0.0769
     13 C         140.2453  142.5049  161.1225 C.ar    1  UNL1        0.0444
     14 C         139.6855  141.1203  161.2615 C.3     1  UNL1        0.1002
     15 N         138.5621  140.9736  160.2784 N.3     1  UNL1       -0.2886
     16 C         138.4276  142.2677  159.5318 C.3     1  UNL1        0.1153
     17 H         137.6942  140.7675  160.7729 H       1  UNL1        0.1239
     18 C         142.8461  141.2752  166.5142 C.ar    1  UNL1        0.0025
     19 C         143.1838  142.3330  167.5226 C.ar    1  UNL1        0.0024
     20 C         143.2079  141.9957  168.9839 C.ar    1  UNL1        0.0296
     21 C         142.8944  140.6004  169.4369 C.ar    1  UNL1        0.1401
     22 F         142.9185  140.2631  170.8982 F       1  UNL1       -0.2042
     23 C         142.5567  139.5426  168.4284 C.ar    1  UNL1        0.0296
     24 C         142.5325  139.8800  166.9671 C.ar    1  UNL1        0.0024
@<TRIPOS>BOND
     1     1     2    1
     2     2     3   ar
     3     3     4   ar
     4     4     8    1
     5     8     9   ar
     6     9    10   ar
     7    10    11   ar
     8    11    12   ar
     9    12    13   ar
    10    13    14    1
    11    14    15    1
    12    15    16    1
    13     4     5   ar
    14     5     6    1
    15     5     7   ar
    16     7    18    1
    17    18    19   ar
    18    19    20   ar
    19    20    21   ar
    20    21    22    1
    21    21    23   ar
    22    23    24   ar
    23     7     2   ar
    24    24    18   ar
    25    13     8   ar
    26    16    12    1
    27    15    17    1
