@<TRIPOS>MOLECULE
*****
 24 27 0 0 0
SMALL
GASTEIGER

@<TRIPOS>ATOM
      1 C         138.3838  138.8788  165.5913 C.ar    1  UNL1        0.1477
      2 C         138.8731  137.5482  165.1013 C.ar    1  UNL1        0.0373
      3 C         139.0845  137.3209  163.6337 C.ar    1  UNL1        0.0002
      4 C         138.8066  138.4242  162.6562 C.ar    1  UNL1       -0.0059
      5 C         138.3173  139.7548  163.1462 C.ar    1  UNL1        0.0002
      6 C         138.1059  139.9821  164.6138 C.ar    1  UNL1        0.0373
      7 O         138.1725  139.1062  167.0588 O.3     1  UNL1       -0.4313
      8 CL        144.5042  142.6709  170.0297 Cl      1  UNL1       -0.0806
      9 C         143.1450  142.0441  169.9305 C.ar    1  UNL1        0.0774
     10 C         142.2649  141.9661  171.1426 C.ar    1  UNL1        0.1119
     11 N         140.9057  141.3393  171.0435 N.ar    1  UNL1       -0.2236
     12 C         140.4267  140.7905  169.7323 C.ar    1  UNL1        0.1721
     13 N         139.1455  140.1208  169.3324 N.ar    1  UNL1       -0.1859
     14 C         139.2338  139.7850  167.8731 C.ar    1  UNL1        0.2642
     15 S         140.5696  140.2470  167.3711 S.2     1  UNL1       -0.0267
     16 C         141.3069  140.8685  168.5202 C.ar    1  UNL1        0.0705
     17 C         142.6660  141.4953  168.6193 C.ar    1  UNL1        0.0227
     18 C         139.0179  138.1969  161.1887 C.3     1  UNL1        0.0991
     19 N         140.3751  138.4064  160.5851 N.3     1  UNL1       -0.2690
     20 C         141.6041  138.0041  161.3450 C.3     1  UNL1        0.0724
     21 C         142.9613  138.2137  160.7414 C.3     1  UNL1        0.0174
     22 C         143.0893  138.8257  159.3779 C.3     1  UNL1        0.0029
     23 C         141.8601  139.2280  158.6180 C.3     1  UNL1        0.0174
     24 C         140.5031  139.0184  159.2216 C.3     1  UNL1        0.0724
@<TRIPOS>BOND
     1     8     9    1
     2     9    10   ar
     3    10    11   ar
     4    11    12   ar
     5    12    13   ar
     6    13    14   ar
     7    14     7    1
     8     7     1    1
     9     1     2   ar
    10     2     3   ar
    11     3     4   ar
    12     4    18    1
    13    18    19    1
    14    19    20    1
    15    20    21    1
    16    21    22    1
    17    22    23    1
    18    23    24    1
    19     4     5   ar
    20     5     6   ar
    21    14    15   ar
    22    15    16   ar
    23    16    17   ar
    24    17     9   ar
    25    16    12   ar
    26     6     1   ar
    27    24    19    1
@<TRIPOS>MOLECULE
*****
 24 27 0 0 0
SMALL
GASTEIGER

@<TRIPOS>ATOM
      1 C         138.4535  138.9387  165.1053 C.ar    1  UNL1        0.1477
      2 C         138.0643  139.9942  164.1131 C.ar    1  UNL1        0.0373
      3 C         138.3577  139.7978  162.6552 C.ar    1  UNL1        0.0002
      4 C         139.0402  138.5459  162.1895 C.ar    1  UNL1       -0.0059
      5 C         139.4294  137.4904  163.1817 C.ar    1  UNL1        0.0002
      6 C         139.1361  137.6868  164.6396 C.ar    1  UNL1        0.0373
      7 O         138.1602  139.1350  166.5631 O.3     1  UNL1       -0.4313
      8 CL        144.3358  142.5640  169.9877 Cl      1  UNL1       -0.0806
      9 C         143.0155  141.8756  169.8066 C.ar    1  UNL1        0.0774
     10 C         142.1730  141.5426  171.0022 C.ar    1  UNL1        0.1119
     11 N         140.8527  140.8542  170.8210 N.ar    1  UNL1       -0.2236
     12 C         140.3748  140.4987  169.4444 C.ar    1  UNL1        0.1721
     13 N         139.1271  139.8226  168.9584 N.ar    1  UNL1       -0.1859
     14 C         139.1984  139.7378  167.4625 C.ar    1  UNL1        0.2642
     15 S         140.4902  140.3614  167.0239 S.2     1  UNL1       -0.0267
     16 C         141.2172  140.8317  168.2488 C.ar    1  UNL1        0.0705
     17 C         142.5376  141.5201  168.4300 C.ar    1  UNL1        0.0227
     18 C         139.3336  138.3495  160.7317 C.3     1  UNL1        0.0991
     19 N         140.6650  138.7564  160.1731 N.3     1  UNL1       -0.2690
     20 C         140.9762  138.5159  158.7256 C.3     1  UNL1        0.0724
     21 C         142.3076  138.9229  158.1670 C.3     1  UNL1        0.0174
     22 C         143.3276  139.5704  159.0559 C.3     1  UNL1        0.0029
     23 C         143.0163  139.8109  160.5035 C.3     1  UNL1        0.0174
     24 C         141.6850  139.4039  161.0620 C.3     1  UNL1        0.0724
@<TRIPOS>BOND
     1     8     9    1
     2     9    10   ar
     3    10    11   ar
     4    11    12   ar
     5    12    13   ar
     6    13    14   ar
     7    14     7    1
     8     7     1    1
     9     1     2   ar
    10     2     3   ar
    11     3     4   ar
    12     4    18    1
    13    18    19    1
    14    19    20    1
    15    20    21    1
    16    21    22    1
    17    22    23    1
    18    23    24    1
    19     4     5   ar
    20     5     6   ar
    21    14    15   ar
    22    15    16   ar
    23    16    17   ar
    24    17     9   ar
    25    16    12   ar
    26     6     1   ar
    27    24    19    1
@<TRIPOS>MOLECULE
*****
 24 27 0 0 0
SMALL
GASTEIGER

@<TRIPOS>ATOM
      1 C         139.0143  138.1699  164.9606 C.ar    1  UNL1        0.1477
      2 C         140.2219  139.0338  165.1739 C.ar    1  UNL1        0.0373
      3 C         140.3803  139.7985  166.4545 C.ar    1  UNL1        0.0002
      4 C         139.3311  139.6993  167.5220 C.ar    1  UNL1       -0.0059
      5 C         138.1236  138.8354  167.3087 C.ar    1  UNL1        0.0002
      6 C         137.9652  138.0707  166.0281 C.ar    1  UNL1        0.0373
      7 O         138.8559  137.4052  163.6800 O.3     1  UNL1       -0.4313
      8 CL        141.9204  139.9962  156.9331 Cl      1  UNL1       -0.0806
      9 C         141.7936  139.3213  158.2667 C.ar    1  UNL1        0.0774
     10 C         142.9698  138.6029  158.8586 C.ar    1  UNL1        0.1119
     11 N         142.8430  137.9280  160.1922 N.ar    1  UNL1       -0.2236
     12 C         141.5400  137.9715  160.9339 C.ar    1  UNL1        0.1721
     13 N         141.1183  137.4028  162.2563 N.ar    1  UNL1       -0.1859
     14 C         139.6814  137.7698  162.4817 C.ar    1  UNL1        0.2642
     15 S         139.2151  138.5652  161.2986 S.2     1  UNL1       -0.0267
     16 C         140.3637  138.6899  160.3420 C.ar    1  UNL1        0.0705
     17 C         140.4905  139.3648  159.0084 C.ar    1  UNL1        0.0227
     18 C         139.4895  140.4640  168.8027 C.3     1  UNL1        0.0991
     19 N         140.8503  140.9171  169.2422 N.3     1  UNL1       -0.2690
     20 C         141.7855  139.9492  169.9044 C.3     1  UNL1        0.0724
     21 C         143.1463  140.4023  170.3439 C.3     1  UNL1        0.0174
     22 C         143.5717  141.8234  170.1213 C.3     1  UNL1        0.0029
     23 C         142.6364  142.7913  169.4592 C.3     1  UNL1        0.0174
     24 C         141.2757  142.3382  169.0196 C.3     1  UNL1        0.0724
@<TRIPOS>BOND
     1     8     9    1
     2     9    10   ar
     3    10    11   ar
     4    11    12   ar
     5    12    13   ar
     6    13    14   ar
     7    14     7    1
     8     7     1    1
     9     1     2   ar
    10     2     3   ar
    11     3     4   ar
    12     4    18    1
    13    18    19    1
    14    19    20    1
    15    20    21    1
    16    21    22    1
    17    22    23    1
    18    23    24    1
    19     4     5   ar
    20     5     6   ar
    21    14    15   ar
    22    15    16   ar
    23    16    17   ar
    24    17     9   ar
    25    16    12   ar
    26     6     1   ar
    27    24    19    1
@<TRIPOS>MOLECULE
*****
 24 27 0 0 0
SMALL
GASTEIGER

@<TRIPOS>ATOM
      1 C         138.8573  138.0362  165.1187 C.ar    1  UNL1        0.1477
      2 C         137.8064  137.9746  166.1874 C.ar    1  UNL1        0.0373
      3 C         137.9795  138.7571  167.4554 C.ar    1  UNL1        0.0002
      4 C         139.2034  139.6012  167.6546 C.ar    1  UNL1       -0.0059
      5 C         140.2542  139.6627  166.5860 C.ar    1  UNL1        0.0002
      6 C         140.0811  138.8802  165.3180 C.ar    1  UNL1        0.0373
      7 O         138.6842  137.2536  163.8508 O.3     1  UNL1       -0.4313
      8 CL        138.3386  141.4198  157.2064 Cl      1  UNL1       -0.0806
      9 C         138.8304  140.4814  158.2682 C.ar    1  UNL1        0.0774
     10 C         140.1386  139.7689  158.0921 C.ar    1  UNL1        0.1119
     11 N         140.6304  138.8304  159.1538 N.ar    1  UNL1       -0.2236
     12 C         139.8141  138.6044  160.3917 C.ar    1  UNL1        0.1721
     13 N         140.0401  137.7448  161.6000 N.ar    1  UNL1       -0.1859
     14 C         138.8716  137.9260  162.5230 C.ar    1  UNL1        0.2642
     15 S         137.9234  138.8976  161.8851 S.2     1  UNL1       -0.0267
     16 C         138.5059  139.3168  160.5679 C.ar    1  UNL1        0.0705
     17 C         138.0141  140.2553  159.5061 C.ar    1  UNL1        0.0227
     18 C         139.3765  140.3837  168.9226 C.3     1  UNL1        0.0991
     19 N         140.7273  140.9193  169.2949 N.3     1  UNL1       -0.2690
     20 C         141.0768  142.3468  168.9950 C.3     1  UNL1        0.0724
     21 C         142.4276  142.8824  169.3673 C.3     1  UNL1        0.0174
     22 C         143.4288  141.9904  170.0396 C.3     1  UNL1        0.0029
     23 C         143.0792  140.5629  170.3396 C.3     1  UNL1        0.0174
     24 C         141.7285  140.0273  169.9673 C.3     1  UNL1        0.0724
@<TRIPOS>BOND
     1     8     9    1
     2     9    10   ar
     3    10    11   ar
     4    11    12   ar
     5    12    13   ar
     6    13    14   ar
     7    14     7    1
     8     7     1    1
     9     1     2   ar
    10     2     3   ar
    11     3     4   ar
    12     4    18    1
    13    18    19    1
    14    19    20    1
    15    20    21    1
    16    21    22    1
    17    22    23    1
    18    23    24    1
    19     4     5   ar
    20     5     6   ar
    21    14    15   ar
    22    15    16   ar
    23    16    17   ar
    24    17     9   ar
    25    16    12   ar
    26     6     1   ar
    27    24    19    1
@<TRIPOS>MOLECULE
*****
 24 27 0 0 0
SMALL
GASTEIGER

@<TRIPOS>ATOM
      1 C         139.3449  143.8779  163.9525 C.ar    1  UNL1        0.1477
      2 C         140.2638  143.7530  165.1317 C.ar    1  UNL1        0.0373
      3 C         140.2092  142.5302  165.9987 C.ar    1  UNL1        0.0002
      4 C         139.2358  141.4323  165.6867 C.ar    1  UNL1       -0.0059
      5 C         138.3170  141.5573  164.5076 C.ar    1  UNL1        0.0002
      6 C         138.3716  142.7801  163.6406 C.ar    1  UNL1        0.0373
      7 O         139.3995  145.1007  163.0855 O.3     1  UNL1       -0.4313
      8 CL        143.2037  143.5035  156.4071 Cl      1  UNL1       -0.0806
      9 C         142.2777  144.1548  157.3911 C.ar    1  UNL1        0.0774
     10 C         141.4187  145.3075  156.9630 C.ar    1  UNL1        0.1119
     11 N         140.4927  145.9588  157.9470 N.ar    1  UNL1       -0.2236
     12 C         140.4256  145.4574  159.3591 C.ar    1  UNL1        0.1721
     13 N         139.6149  145.8959  160.5425 N.ar    1  UNL1       -0.1859
     14 C         139.9729  145.0141  161.7020 C.ar    1  UNL1        0.2642
     15 S         141.0048  144.0307  161.2352 S.2     1  UNL1       -0.0267
     16 C         141.2846  144.3047  159.7872 C.ar    1  UNL1        0.0705
     17 C         142.2107  143.6534  158.8032 C.ar    1  UNL1        0.0227
     18 C         139.1812  140.2095  166.5538 C.3     1  UNL1        0.0991
     19 N         140.2708  139.9481  167.5511 N.3     1  UNL1       -0.2690
     20 C         139.9986  140.1052  169.0177 C.3     1  UNL1        0.0724
     21 C         141.0882  139.8437  170.0150 C.3     1  UNL1        0.0174
     22 C         142.4500  139.4251  169.5455 C.3     1  UNL1        0.0029
     23 C         142.7221  139.2680  168.0787 C.3     1  UNL1        0.0174
     24 C         141.6326  139.5295  167.0816 C.3     1  UNL1        0.0724
@<TRIPOS>BOND
     1     8     9    1
     2     9    10   ar
     3    10    11   ar
     4    11    12   ar
     5    12    13   ar
     6    13    14   ar
     7    14     7    1
     8     7     1    1
     9     1     2   ar
    10     2     3   ar
    11     3     4   ar
    12     4    18    1
    13    18    19    1
    14    19    20    1
    15    20    21    1
    16    21    22    1
    17    22    23    1
    18    23    24    1
    19     4     5   ar
    20     5     6   ar
    21    14    15   ar
    22    15    16   ar
    23    16    17   ar
    24    17     9   ar
    25    16    12   ar
    26     6     1   ar
    27    24    19    1
@<TRIPOS>MOLECULE
*****
 24 27 0 0 0
SMALL
GASTEIGER

@<TRIPOS>ATOM
      1 C         138.3376  140.6148  164.4132 C.ar    1  UNL1        0.1477
      2 C         138.0366  139.3613  165.1802 C.ar    1  UNL1        0.0373
      3 C         138.6082  139.1666  166.5533 C.ar    1  UNL1        0.0002
      4 C         139.4810  140.2255  167.1594 C.ar    1  UNL1       -0.0059
      5 C         139.7820  141.4789  166.3924 C.ar    1  UNL1        0.0002
      6 C         139.2103  141.6735  165.0193 C.ar    1  UNL1        0.0373
      7 O         137.7660  140.8094  163.0402 O.3     1  UNL1       -0.4313
      8 CL        142.6241  137.6461  157.7471 Cl      1  UNL1       -0.0806
      9 C         141.4041  138.2681  158.3593 C.ar    1  UNL1        0.0774
     10 C         140.1941  138.5355  157.5141 C.ar    1  UNL1        0.1119
     11 N         138.9741  139.1574  158.1263 N.ar    1  UNL1       -0.2236
     12 C         138.9640  139.5119  159.5837 C.ar    1  UNL1        0.1721
     13 N         137.9148  140.1307  160.4590 N.ar    1  UNL1       -0.1859
     14 C         138.4762  140.2457  161.8452 C.ar    1  UNL1        0.2642
     15 S         139.8725  139.6980  161.8267 S.2     1  UNL1       -0.0267
     16 C         140.1740  139.2445  160.4290 C.ar    1  UNL1        0.0705
     17 C         141.3940  138.6226  159.8168 C.ar    1  UNL1        0.0227
     18 C         140.0526  140.0308  168.5324 C.3     1  UNL1        0.0991
     19 N         141.0043  141.0425  169.0990 N.3     1  UNL1       -0.2690
     20 C         142.4792  140.7698  169.0944 C.3     1  UNL1        0.0724
     21 C         143.4308  141.7815  169.6610 C.3     1  UNL1        0.0174
     22 C         142.9074  143.0660  170.2321 C.3     1  UNL1        0.0029
     23 C         141.4324  143.3387  170.2366 C.3     1  UNL1        0.0174
     24 C         140.4808  142.3270  169.6701 C.3     1  UNL1        0.0724
@<TRIPOS>BOND
     1     8     9    1
     2     9    10   ar
     3    10    11   ar
     4    11    12   ar
     5    12    13   ar
     6    13    14   ar
     7    14     7    1
     8     7     1    1
     9     1     2   ar
    10     2     3   ar
    11     3     4   ar
    12     4    18    1
    13    18    19    1
    14    19    20    1
    15    20    21    1
    16    21    22    1
    17    22    23    1
    18    23    24    1
    19     4     5   ar
    20     5     6   ar
    21    14    15   ar
    22    15    16   ar
    23    16    17   ar
    24    17     9   ar
    25    16    12   ar
    26     6     1   ar
    27    24    19    1
@<TRIPOS>MOLECULE
*****
 24 27 0 0 0
SMALL
GASTEIGER

@<TRIPOS>ATOM
      1 C         140.2093  137.9578  164.0787 C.ar    1  UNL1        0.1477
      2 C         138.8532  138.1941  164.6749 C.ar    1  UNL1        0.0373
      3 C         138.7210  138.9616  165.9569 C.ar    1  UNL1        0.0002
      4 C         139.9448  139.4928  166.6426 C.ar    1  UNL1       -0.0059
      5 C         141.3007  139.2566  166.0464 C.ar    1  UNL1        0.0002
      6 C         141.4330  138.4890  164.7645 C.ar    1  UNL1        0.0373
      7 O         140.3415  137.1903  162.7968 O.3     1  UNL1       -0.4313
      8 CL        141.6190  141.0378  156.0745 Cl      1  UNL1       -0.0806
      9 C         140.9087  140.3432  157.1984 C.ar    1  UNL1        0.0774
     10 C         139.4154  140.2046  157.1700 C.ar    1  UNL1        0.1119
     11 N         138.7052  139.5100  158.2939 N.ar    1  UNL1       -0.2236
     12 C         139.4882  138.9540  159.4461 C.ar    1  UNL1        0.1721
     13 N         139.0667  138.2245  160.6872 N.ar    1  UNL1       -0.1859
     14 C         140.2995  137.9123  161.4826 C.ar    1  UNL1        0.2642
     15 S         141.4829  138.4488  160.7332 S.2     1  UNL1       -0.0267
     16 C         140.9814  139.0927  159.4745 C.ar    1  UNL1        0.0705
     17 C         141.6917  139.7873  158.3507 C.ar    1  UNL1        0.0227
     18 C         139.8125  140.2604  167.9246 C.3     1  UNL1        0.0991
     19 N         141.0404  140.7096  168.6599 N.3     1  UNL1       -0.2690
     20 C         141.6779  139.8087  169.6757 C.3     1  UNL1        0.0724
     21 C         142.9058  140.2579  170.4110 C.3     1  UNL1        0.0174
     22 C         143.4961  141.6080  170.1304 C.3     1  UNL1        0.0029
     23 C         142.8585  142.5089  169.1145 C.3     1  UNL1        0.0174
     24 C         141.6307  142.0597  168.3793 C.3     1  UNL1        0.0724
@<TRIPOS>BOND
     1     8     9    1
     2     9    10   ar
     3    10    11   ar
     4    11    12   ar
     5    12    13   ar
     6    13    14   ar
     7    14     7    1
     8     7     1    1
     9     1     2   ar
    10     2     3   ar
    11     3     4   ar
    12     4    18    1
    13    18    19    1
    14    19    20    1
    15    20    21    1
    16    21    22    1
    17    22    23    1
    18    23    24    1
    19     4     5   ar
    20     5     6   ar
    21    14    15   ar
    22    15    16   ar
    23    16    17   ar
    24    17     9   ar
    25    16    12   ar
    26     6     1   ar
    27    24    19    1
@<TRIPOS>MOLECULE
*****
 24 27 0 0 0
SMALL
GASTEIGER

@<TRIPOS>ATOM
      1 C         139.5999  138.4581  164.4470 C.ar    1  UNL1        0.1477
      2 C         139.3320  139.4003  165.5831 C.ar    1  UNL1        0.0373
      3 C         140.4238  139.7298  166.5576 C.ar    1  UNL1        0.0002
      4 C         141.7834  139.1170  166.3959 C.ar    1  UNL1       -0.0059
      5 C         142.0512  138.1749  165.2599 C.ar    1  UNL1        0.0002
      6 C         140.9594  137.8455  164.2854 C.ar    1  UNL1        0.0373
      7 O         138.5081  138.1287  163.4726 O.3     1  UNL1       -0.4313
      8 CL        138.2275  141.2448  156.2729 Cl      1  UNL1       -0.0806
      9 C         138.6031  140.3525  157.4186 C.ar    1  UNL1        0.0774
     10 C         139.5938  139.2451  157.2133 C.ar    1  UNL1        0.1119
     11 N         139.9694  138.3528  158.3589 N.ar    1  UNL1       -0.2236
     12 C         139.3544  138.5678  159.7100 C.ar    1  UNL1        0.1721
     13 N         139.5291  137.8537  161.0175 N.ar    1  UNL1       -0.1859
     14 C         138.6463  138.5198  162.0310 C.ar    1  UNL1        0.2642
     15 S         137.9261  139.6455  161.3499 S.2     1  UNL1       -0.0267
     16 C         138.3637  139.6752  159.9154 C.ar    1  UNL1        0.0705
     17 C         137.9881  140.5675  158.7697 C.ar    1  UNL1        0.0227
     18 C         142.8752  139.4465  167.3703 C.3     1  UNL1        0.0991
     19 N         142.5952  140.3533  168.5320 N.3     1  UNL1       -0.2690
     20 C         142.0718  139.7852  169.8178 C.3     1  UNL1        0.0724
     21 C         141.7918  140.6920  170.9794 C.3     1  UNL1        0.0174
     22 C         142.0352  142.1669  170.8552 C.3     1  UNL1        0.0029
     23 C         142.5586  142.7350  169.5693 C.3     1  UNL1        0.0174
     24 C         142.8386  141.8282  168.4077 C.3     1  UNL1        0.0724
@<TRIPOS>BOND
     1     8     9    1
     2     9    10   ar
     3    10    11   ar
     4    11    12   ar
     5    12    13   ar
     6    13    14   ar
     7    14     7    1
     8     7     1    1
     9     1     2   ar
    10     2     3   ar
    11     3     4   ar
    12     4    18    1
    13    18    19    1
    14    19    20    1
    15    20    21    1
    16    21    22    1
    17    22    23    1
    18    23    24    1
    19     4     5   ar
    20     5     6   ar
    21    14    15   ar
    22    15    16   ar
    23    16    17   ar
    24    17     9   ar
    25    16    12   ar
    26     6     1   ar
    27    24    19    1
@<TRIPOS>MOLECULE
*****
 24 27 0 0 0
SMALL
GASTEIGER

@<TRIPOS>ATOM
      1 C         141.3621  137.7003  157.3599 C.ar    1  UNL1        0.1477
      2 C         140.4096  137.1640  156.3326 C.ar    1  UNL1        0.0373
      3 C         140.8517  136.0820  155.3925 C.ar    1  UNL1        0.0002
      4 C         142.2462  135.5362  155.4798 C.ar    1  UNL1       -0.0059
      5 C         143.1985  136.0725  156.5071 C.ar    1  UNL1        0.0002
      6 C         142.7565  137.1545  157.4472 C.ar    1  UNL1        0.0373
      7 O         140.9200  138.7824  158.3000 O.3     1  UNL1       -0.4313
      8 CL        138.4893  137.4147  165.6379 Cl      1  UNL1       -0.0806
      9 C         139.3900  137.5841  164.4504 C.ar    1  UNL1        0.0774
     10 C         140.8710  137.3996  164.5999 C.ar    1  UNL1        0.1119
     11 N         141.7716  137.5690  163.4124 N.ar    1  UNL1       -0.2236
     12 C         141.1912  137.9229  162.0754 C.ar    1  UNL1        0.1721
     13 N         141.8247  138.1533  160.7354 N.ar    1  UNL1       -0.1859
     14 C         140.7351  138.4802  159.7576 C.ar    1  UNL1        0.2642
     15 S         139.4282  138.4519  160.4933 S.2     1  UNL1       -0.0267
     16 C         139.7102  138.1075  161.9258 C.ar    1  UNL1        0.0705
     17 C         138.8095  137.9381  163.1133 C.ar    1  UNL1        0.0227
     18 C         142.6883  134.4541  154.5398 C.3     1  UNL1        0.0991
     19 N         142.7639  133.0331  155.0143 N.3     1  UNL1       -0.2690
     20 C         141.5894  132.1180  154.8319 C.3     1  UNL1        0.0724
     21 C         141.6650  130.6970  155.3064 C.3     1  UNL1        0.0174
     22 C         142.9151  130.1912  155.9633 C.3     1  UNL1        0.0029
     23 C         144.0896  131.1063  156.1456 C.3     1  UNL1        0.0174
     24 C         144.0139  132.5273  155.6711 C.3     1  UNL1        0.0724
@<TRIPOS>BOND
     1     8     9    1
     2     9    10   ar
     3    10    11   ar
     4    11    12   ar
     5    12    13   ar
     6    13    14   ar
     7    14     7    1
     8     7     1    1
     9     1     2   ar
    10     2     3   ar
    11     3     4   ar
    12     4    18    1
    13    18    19    1
    14    19    20    1
    15    20    21    1
    16    21    22    1
    17    22    23    1
    18    23    24    1
    19     4     5   ar
    20     5     6   ar
    21    14    15   ar
    22    15    16   ar
    23    16    17   ar
    24    17     9   ar
    25    16    12   ar
    26     6     1   ar
    27    24    19    1
