@<TRIPOS>MOLECULE
*****
 24 26 0 0 0
SMALL
GASTEIGER

@<TRIPOS>ATOM
      1 C         141.1691  140.4245  168.7467 C.3     1  UNL1        0.0489
      2 C         140.1547  140.6035  169.8370 C.3     1  UNL1        0.0236
      3 C         140.5989  140.6974  171.2667 C.3     1  UNL1        0.0690
      4 N         142.0575  140.6123  171.6059 N.3     1  UNL1       -0.2974
      5 C         143.0720  140.4333  170.5156 C.3     1  UNL1        0.0690
      6 C         142.6277  140.3394  169.0859 C.3     1  UNL1        0.0236
      7 H         142.1663  139.8223  172.2419 H       1  UNL1        0.1232
      8 C         141.7466  140.2546  167.3728 C.ar    1  UNL1       -0.0204
      9 C         141.4263  141.2489  166.2963 C.ar    1  UNL1       -0.0042
     10 C         142.0038  141.0789  164.9224 C.ar    1  UNL1       -0.0003
     11 C         142.9017  139.9147  164.6250 C.ar    1  UNL1       -0.0000
     12 C         143.2220  138.9204  165.7014 C.ar    1  UNL1       -0.0003
     13 C         142.6445  139.0903  167.0753 C.ar    1  UNL1       -0.0042
     14 C         139.9111  140.4506  167.9302 C.3     1  UNL1        0.1466
     15 O         138.8181  139.4607  168.2049 O.3     1  UNL1       -0.3487
     16 C         138.0328  138.8760  167.0684 C.3     1  UNL1        0.1687
     17 CL        138.1749  141.4367  162.5493 Cl      1  UNL1       -0.0613
     18 C         138.6113  140.2832  163.4030 C.ar    1  UNL1        0.1390
     19 C         138.1039  140.1563  164.8089 C.ar    1  UNL1        0.0290
     20 C         138.5403  139.0028  165.6626 C.ar    1  UNL1        0.0120
     21 C         139.4841  137.9760  165.1104 C.ar    1  UNL1        0.0290
     22 C         139.9916  138.1028  163.7046 C.ar    1  UNL1        0.1390
     23 CL        140.9355  137.0760  163.1524 Cl      1  UNL1       -0.0613
     24 N         139.5552  139.2564  162.8509 N.ar    1  UNL1       -0.2226
@<TRIPOS>BOND
     1    17    18    1
     2    18    19   ar
     3    19    20   ar
     4    20    16    1
     5    16    15    1
     6    15    14    1
     7    14     1    1
     8     1     8    1
     9     8     9   ar
    10     9    10   ar
    11    10    11   ar
    12    11    12   ar
    13    12    13   ar
    14     1     2    1
    15     2     3    1
    16     3     4    1
    17     4     5    1
    18     5     6    1
    19    20    21   ar
    20    21    22   ar
    21    22    23    1
    22    22    24   ar
    23    24    18   ar
    24     6     1    1
    25    13     8   ar
    26     4     7    1
@<TRIPOS>MOLECULE
*****
 24 26 0 0 0
SMALL
GASTEIGER

@<TRIPOS>ATOM
      1 C         141.1712  140.4282  168.7421 C.3     1  UNL1        0.0489
      2 C         140.1608  140.5993  169.8374 C.3     1  UNL1        0.0236
      3 C         140.6112  140.6956  171.2649 C.3     1  UNL1        0.0690
      4 N         142.0720  140.6209  171.5971 N.3     1  UNL1       -0.2974
      5 C         143.0825  140.4499  170.5018 C.3     1  UNL1        0.0690
      6 C         142.6320  140.3535  169.0742 C.3     1  UNL1        0.0236
      7 H         142.1896  139.8314  172.2321 H       1  UNL1        0.1232
      8 C         141.7433  140.2632  167.3653 C.ar    1  UNL1       -0.0204
      9 C         142.6513  139.1080  167.0639 C.ar    1  UNL1       -0.0042
     10 C         143.2234  138.9429  165.6871 C.ar    1  UNL1       -0.0003
     11 C         142.8873  139.9332  164.6117 C.ar    1  UNL1       -0.0000
     12 C         141.9793  141.0884  164.9131 C.ar    1  UNL1       -0.0003
     13 C         141.4073  141.2535  166.2899 C.ar    1  UNL1       -0.0042
     14 C         139.9091  140.4456  167.9317 C.3     1  UNL1        0.1466
     15 O         138.8316  139.4372  168.2001 O.3     1  UNL1       -0.3487
     16 C         138.0333  138.8719  167.0629 C.3     1  UNL1        0.1687
     17 CL        140.9652  137.0704  163.1695 Cl      1  UNL1       -0.0613
     18 C         140.0081  138.0909  163.7102 C.ar    1  UNL1        0.1390
     19 C         139.4993  137.9712  165.1161 C.ar    1  UNL1        0.0290
     20 C         138.5421  138.9917  165.6568 C.ar    1  UNL1        0.0120
     21 C         138.0939  140.1321  164.7917 C.ar    1  UNL1        0.0290
     22 C         138.6027  140.2519  163.3857 C.ar    1  UNL1        0.1390
     23 CL        138.1544  141.3922  162.5204 Cl      1  UNL1       -0.0613
     24 N         139.5598  139.2313  162.8450 N.ar    1  UNL1       -0.2226
@<TRIPOS>BOND
     1    17    18    1
     2    18    19   ar
     3    19    20   ar
     4    20    16    1
     5    16    15    1
     6    15    14    1
     7    14     1    1
     8     1     8    1
     9     8     9   ar
    10     9    10   ar
    11    10    11   ar
    12    11    12   ar
    13    12    13   ar
    14     1     2    1
    15     2     3    1
    16     3     4    1
    17     4     5    1
    18     5     6    1
    19    20    21   ar
    20    21    22   ar
    21    22    23    1
    22    22    24   ar
    23    24    18   ar
    24     6     1    1
    25    13     8   ar
    26     4     7    1
@<TRIPOS>MOLECULE
*****
 24 26 0 0 0
SMALL
GASTEIGER

@<TRIPOS>ATOM
      1 C         140.2437  141.4847  168.4259 C.3     1  UNL1        0.0489
      2 C         139.7183  140.7933  169.6490 C.3     1  UNL1        0.0236
      3 C         139.5575  141.5558  170.9307 C.3     1  UNL1        0.0690
      4 N         139.9220  143.0096  170.9893 N.3     1  UNL1       -0.2974
      5 C         140.4474  143.7010  169.7663 C.3     1  UNL1        0.0690
      6 C         140.6082  142.9385  168.4845 C.3     1  UNL1        0.0236
      7 H         140.6362  143.1052  171.7113 H       1  UNL1        0.1232
      8 C         140.6972  141.6967  167.0119 C.ar    1  UNL1       -0.0204
      9 C         140.1701  142.8572  166.2213 C.ar    1  UNL1       -0.0042
     10 C         140.6236  143.0692  164.8073 C.ar    1  UNL1       -0.0003
     11 C         141.6042  142.1206  164.1839 C.ar    1  UNL1       -0.0000
     12 C         142.1313  140.9600  164.9746 C.ar    1  UNL1       -0.0003
     13 C         141.6778  140.7480  166.3886 C.ar    1  UNL1       -0.0042
     14 C         140.0367  140.1045  167.8763 C.3     1  UNL1        0.1466
     15 O         138.7383  139.3908  168.1106 O.3     1  UNL1       -0.3487
     16 C         137.9700  138.8313  166.9502 C.3     1  UNL1        0.1687
     17 CL        138.1119  141.4878  162.4867 Cl      1  UNL1       -0.0613
     18 C         138.5634  140.3269  163.3223 C.ar    1  UNL1        0.1390
     19 C         138.0410  140.1595  164.7184 C.ar    1  UNL1        0.0290
     20 C         138.4925  138.9986  165.5540 C.ar    1  UNL1        0.0120
     21 C         139.4665  138.0050  164.9936 C.ar    1  UNL1        0.0290
     22 C         139.9889  138.1724  163.5976 C.ar    1  UNL1        0.1390
     23 CL        140.9630  137.1787  163.0371 Cl      1  UNL1       -0.0613
     24 N         139.5374  139.3333  162.7619 N.ar    1  UNL1       -0.2226
@<TRIPOS>BOND
     1    17    18    1
     2    18    19   ar
     3    19    20   ar
     4    20    16    1
     5    16    15    1
     6    15    14    1
     7    14     1    1
     8     1     8    1
     9     8     9   ar
    10     9    10   ar
    11    10    11   ar
    12    11    12   ar
    13    12    13   ar
    14     1     2    1
    15     2     3    1
    16     3     4    1
    17     4     5    1
    18     5     6    1
    19    20    21   ar
    20    21    22   ar
    21    22    23    1
    22    22    24   ar
    23    24    18   ar
    24     6     1    1
    25    13     8   ar
    26     4     7    1
@<TRIPOS>MOLECULE
*****
 24 26 0 0 0
SMALL
GASTEIGER

@<TRIPOS>ATOM
      1 C         140.9559  140.3577  168.5821 C.3     1  UNL1        0.0489
      2 C         142.1631  140.4142  169.4707 C.3     1  UNL1        0.0236
      3 C         141.9955  140.5092  170.9583 C.3     1  UNL1        0.0690
      4 N         140.6208  140.5475  171.5573 N.3     1  UNL1       -0.2974
      5 C         139.4137  140.4910  170.6687 C.3     1  UNL1        0.0690
      6 C         139.5813  140.3961  169.1810 C.3     1  UNL1        0.0236
      7 H         140.5551  141.4159  172.0883 H       1  UNL1        0.1232
      8 C         140.1262  140.2783  167.3350 C.ar    1  UNL1       -0.0204
      9 C         140.4612  141.1416  166.1550 C.ar    1  UNL1       -0.0042
     10 C         139.6315  141.0621  164.9079 C.ar    1  UNL1       -0.0003
     11 C         138.4667  140.1193  164.8409 C.ar    1  UNL1       -0.0000
     12 C         138.1316  139.2561  166.0209 C.ar    1  UNL1       -0.0003
     13 C         138.9614  139.3355  167.2680 C.ar    1  UNL1       -0.0042
     14 C         142.0425  140.2918  167.5500 C.3     1  UNL1        0.1466
     15 O         143.1984  139.3543  167.7368 O.3     1  UNL1       -0.3487
     16 C         143.4393  138.2540  166.7462 C.3     1  UNL1        0.1687
     17 CL        140.0202  137.4557  162.9157 Cl      1  UNL1       -0.0613
     18 C         141.3182  138.0312  163.3993 C.ar    1  UNL1        0.1390
     19 C         141.7298  137.8549  164.8309 C.ar    1  UNL1        0.0290
     20 C         143.0278  138.4303  165.3145 C.ar    1  UNL1        0.0120
     21 C         143.9143  139.1822  164.3666 C.ar    1  UNL1        0.0290
     22 C         143.5028  139.3586  162.9350 C.ar    1  UNL1        0.1390
     23 CL        144.3894  140.1104  161.9869 Cl      1  UNL1       -0.0613
     24 N         142.2048  138.7831  162.4514 N.ar    1  UNL1       -0.2226
@<TRIPOS>BOND
     1    17    18    1
     2    18    19   ar
     3    19    20   ar
     4    20    16    1
     5    16    15    1
     6    15    14    1
     7    14     1    1
     8     1     8    1
     9     8     9   ar
    10     9    10   ar
    11    10    11   ar
    12    11    12   ar
    13    12    13   ar
    14     1     2    1
    15     2     3    1
    16     3     4    1
    17     4     5    1
    18     5     6    1
    19    20    21   ar
    20    21    22   ar
    21    22    23    1
    22    22    24   ar
    23    24    18   ar
    24     6     1    1
    25    13     8   ar
    26     4     7    1
@<TRIPOS>MOLECULE
*****
 24 26 0 0 0
SMALL
GASTEIGER

@<TRIPOS>ATOM
      1 C         141.6116  141.5855  168.2496 C.3     1  UNL1        0.0489
      2 C         142.9636  141.8722  168.8326 C.3     1  UNL1        0.0236
      3 C         143.0929  142.7933  170.0095 C.3     1  UNL1        0.0690
      4 N         141.8702  143.4275  170.6034 N.3     1  UNL1       -0.2974
      5 C         140.5182  143.1408  170.0204 C.3     1  UNL1        0.0690
      6 C         140.3889  142.2198  168.8435 C.3     1  UNL1        0.0236
      7 H         142.0063  144.4370  170.5491 H       1  UNL1        0.1232
      8 C         140.5570  141.0090  167.3521 C.ar    1  UNL1       -0.0204
      9 C         139.6555  139.9215  167.8566 C.ar    1  UNL1       -0.0042
     10 C         138.6010  139.3449  166.9591 C.ar    1  UNL1       -0.0003
     11 C         138.4480  139.8559  165.5571 C.ar    1  UNL1       -0.0000
     12 C         139.3495  140.9434  165.0527 C.ar    1  UNL1       -0.0003
     13 C         140.4041  141.5200  165.9502 C.ar    1  UNL1       -0.0042
     14 C         142.4680  140.7510  167.3441 C.3     1  UNL1        0.1466
     15 O         143.0445  139.4577  167.8388 O.3     1  UNL1       -0.3487
     16 C         143.4205  138.3822  166.8632 C.3     1  UNL1        0.1687
     17 CL        144.3678  139.9092  161.9876 Cl      1  UNL1       -0.0613
     18 C         143.4676  139.2516  162.9912 C.ar    1  UNL1        0.1390
     19 C         143.8941  139.1457  164.4254 C.ar    1  UNL1        0.0290
     20 C         142.9939  138.4881  165.4290 C.ar    1  UNL1        0.0120
     21 C         141.6672  137.9365  164.9984 C.ar    1  UNL1        0.0290
     22 C         141.2407  138.0424  163.5643 C.ar    1  UNL1        0.1390
     23 CL        139.9138  137.4908  163.1337 Cl      1  UNL1       -0.0613
     24 N         142.1409  138.7000  162.5607 N.ar    1  UNL1       -0.2226
@<TRIPOS>BOND
     1    17    18    1
     2    18    19   ar
     3    19    20   ar
     4    20    16    1
     5    16    15    1
     6    15    14    1
     7    14     1    1
     8     1     8    1
     9     8     9   ar
    10     9    10   ar
    11    10    11   ar
    12    11    12   ar
    13    12    13   ar
    14     1     2    1
    15     2     3    1
    16     3     4    1
    17     4     5    1
    18     5     6    1
    19    20    21   ar
    20    21    22   ar
    21    22    23    1
    22    22    24   ar
    23    24    18   ar
    24     6     1    1
    25    13     8   ar
    26     4     7    1
@<TRIPOS>MOLECULE
*****
 24 26 0 0 0
SMALL
GASTEIGER

@<TRIPOS>ATOM
      1 C         142.1552  141.1212  168.6248 C.3     1  UNL1        0.0489
      2 C         142.1044  140.1401  169.7583 C.3     1  UNL1        0.0236
      3 C         142.1080  140.6310  171.1757 C.3     1  UNL1        0.0690
      4 N         142.1623  142.1028  171.4596 N.3     1  UNL1       -0.2974
      5 C         142.2131  143.0839  170.3261 C.3     1  UNL1        0.0690
      6 C         142.2096  142.5930  168.9086 C.3     1  UNL1        0.0236
      7 H         142.9959  142.2630  172.0252 H       1  UNL1        0.1232
      8 C         142.1915  141.6554  167.2236 C.ar    1  UNL1       -0.0204
      9 C         143.3832  142.4321  166.7477 C.ar    1  UNL1       -0.0042
     10 C         143.4195  142.9663  165.3466 C.ar    1  UNL1       -0.0003
     11 C         142.2640  142.7240  164.4213 C.ar    1  UNL1       -0.0000
     12 C         141.0722  141.9474  164.8972 C.ar    1  UNL1       -0.0003
     13 C         141.0359  141.4131  166.2984 C.ar    1  UNL1       -0.0042
     14 C         142.1135  139.8348  167.8543 C.3     1  UNL1        0.1466
     15 O         143.2319  138.8442  167.9874 O.3     1  UNL1       -0.3487
     16 C         143.6629  138.0356  166.7999 C.3     1  UNL1        0.1687
     17 CL        140.4282  138.1326  162.7345 Cl      1  UNL1       -0.0613
     18 C         141.7149  138.5524  163.3810 C.ar    1  UNL1        0.1390
     19 C         142.0456  138.0841  164.7671 C.ar    1  UNL1        0.0290
     20 C         143.3323  138.5039  165.4137 C.ar    1  UNL1        0.0120
     21 C         144.2885  139.3920  164.6741 C.ar    1  UNL1        0.0290
     22 C         143.9578  139.8603  163.2880 C.ar    1  UNL1        0.1390
     23 CL        144.9140  140.7485  162.5483 Cl      1  UNL1       -0.0613
     24 N         142.6711  139.4405  162.6415 N.ar    1  UNL1       -0.2226
@<TRIPOS>BOND
     1    17    18    1
     2    18    19   ar
     3    19    20   ar
     4    20    16    1
     5    16    15    1
     6    15    14    1
     7    14     1    1
     8     1     8    1
     9     8     9   ar
    10     9    10   ar
    11    10    11   ar
    12    11    12   ar
    13    12    13   ar
    14     1     2    1
    15     2     3    1
    16     3     4    1
    17     4     5    1
    18     5     6    1
    19    20    21   ar
    20    21    22   ar
    21    22    23    1
    22    22    24   ar
    23    24    18   ar
    24     6     1    1
    25    13     8   ar
    26     4     7    1
@<TRIPOS>MOLECULE
*****
 24 26 0 0 0
SMALL
GASTEIGER

@<TRIPOS>ATOM
      1 C         141.9560  141.5971  168.2625 C.3     1  UNL1        0.0489
      2 C         141.1533  142.6700  168.9367 C.3     1  UNL1        0.0236
      3 C         141.0089  142.6724  170.4297 C.3     1  UNL1        0.0690
      4 N         141.6673  141.6019  171.2486 N.3     1  UNL1       -0.2974
      5 C         142.4700  140.5290  170.5744 C.3     1  UNL1        0.0690
      6 C         142.6144  140.5266  169.0813 C.3     1  UNL1        0.0236
      7 H         140.9266  141.1321  171.7693 H       1  UNL1        0.1232
      8 C         142.6089  140.7999  167.1724 C.ar    1  UNL1       -0.0204
      9 C         142.6391  139.3025  167.2537 C.ar    1  UNL1       -0.0042
     10 C         143.2919  138.5052  166.1636 C.ar    1  UNL1       -0.0003
     11 C         143.9145  139.2056  164.9923 C.ar    1  UNL1       -0.0000
     12 C         143.8843  140.7030  164.9110 C.ar    1  UNL1       -0.0003
     13 C         143.2315  141.5002  166.0011 C.ar    1  UNL1       -0.0042
     14 C         141.5244  142.3908  167.0651 C.3     1  UNL1        0.1466
     15 O         140.0689  142.4918  166.7172 O.3     1  UNL1       -0.3487
     16 C         139.5547  141.8678  165.4537 C.3     1  UNL1        0.1687
     17 CL        137.2788  137.4935  167.0927 Cl      1  UNL1       -0.0613
     18 C         138.2481  138.1927  166.1863 C.ar    1  UNL1        0.1390
     19 C         138.4168  139.6806  166.2732 C.ar    1  UNL1        0.0290
     20 C         139.3861  140.3798  165.3667 C.ar    1  UNL1        0.0120
     21 C         140.1867  139.5910  164.3734 C.ar    1  UNL1        0.0290
     22 C         140.0181  138.1031  164.2865 C.ar    1  UNL1        0.1390
     23 CL        140.8187  137.3143  163.2931 Cl      1  UNL1       -0.0613
     24 N         139.0488  137.4040  165.1929 N.ar    1  UNL1       -0.2226
@<TRIPOS>BOND
     1    17    18    1
     2    18    19   ar
     3    19    20   ar
     4    20    16    1
     5    16    15    1
     6    15    14    1
     7    14     1    1
     8     1     8    1
     9     8     9   ar
    10     9    10   ar
    11    10    11   ar
    12    11    12   ar
    13    12    13   ar
    14     1     2    1
    15     2     3    1
    16     3     4    1
    17     4     5    1
    18     5     6    1
    19    20    21   ar
    20    21    22   ar
    21    22    23    1
    22    22    24   ar
    23    24    18   ar
    24     6     1    1
    25    13     8   ar
    26     4     7    1
@<TRIPOS>MOLECULE
*****
 24 26 0 0 0
SMALL
GASTEIGER

@<TRIPOS>ATOM
      1 C         141.8963  141.0415  168.1011 C.3     1  UNL1        0.0489
      2 C         141.0330  141.9496  168.9258 C.3     1  UNL1        0.0236
      3 C         140.7399  141.6098  170.3572 C.3     1  UNL1        0.0690
      4 N         141.3100  140.3621  170.9638 N.3     1  UNL1       -0.2974
      5 C         142.1733  139.4540  170.1391 C.3     1  UNL1        0.0690
      6 C         142.4665  139.7938  168.7077 C.3     1  UNL1        0.0236
      7 H         140.5197  139.8039  171.2866 H       1  UNL1        0.1232
      8 C         142.6529  140.5017  166.9237 C.ar    1  UNL1       -0.0204
      9 C         142.8164  139.0206  166.7524 C.ar    1  UNL1       -0.0042
     10 C         143.5729  138.4808  165.5750 C.ar    1  UNL1       -0.0003
     11 C         144.1659  139.4222  164.5689 C.ar    1  UNL1       -0.0000
     12 C         144.0025  140.9033  164.7403 C.ar    1  UNL1       -0.0003
     13 C         143.2459  141.4431  165.9177 C.ar    1  UNL1       -0.0042
     14 C         141.5889  142.1018  167.0856 C.3     1  UNL1        0.1466
     15 O         140.1638  142.4341  166.7562 O.3     1  UNL1       -0.3487
     16 C         139.5205  141.8489  165.5340 C.3     1  UNL1        0.1687
     17 CL        140.7141  137.3301  163.2633 Cl      1  UNL1       -0.0613
     18 C         139.9354  138.1049  164.2848 C.ar    1  UNL1        0.1390
     19 C         140.1173  139.5895  164.3987 C.ar    1  UNL1        0.0290
     20 C         139.3386  140.3643  165.4201 C.ar    1  UNL1        0.0120
     21 C         138.3781  139.6545  166.3276 C.ar    1  UNL1        0.0290
     22 C         138.1962  138.1700  166.2137 C.ar    1  UNL1        0.1390
     23 CL        137.2357  137.4602  167.1213 Cl      1  UNL1       -0.0613
     24 N         138.9749  137.3952  165.1923 N.ar    1  UNL1       -0.2226
@<TRIPOS>BOND
     1    17    18    1
     2    18    19   ar
     3    19    20   ar
     4    20    16    1
     5    16    15    1
     6    15    14    1
     7    14     1    1
     8     1     8    1
     9     8     9   ar
    10     9    10   ar
    11    10    11   ar
    12    11    12   ar
    13    12    13   ar
    14     1     2    1
    15     2     3    1
    16     3     4    1
    17     4     5    1
    18     5     6    1
    19    20    21   ar
    20    21    22   ar
    21    22    23    1
    22    22    24   ar
    23    24    18   ar
    24     6     1    1
    25    13     8   ar
    26     4     7    1
@<TRIPOS>MOLECULE
*****
 24 26 0 0 0
SMALL
GASTEIGER

@<TRIPOS>ATOM
      1 C         143.5967  142.2873  164.4919 C.3     1  UNL1        0.0489
      2 C         143.5085  143.3298  163.4170 C.3     1  UNL1        0.0236
      3 C         144.5169  143.3495  162.3067 C.3     1  UNL1        0.0690
      4 N         145.6135  142.3267  162.2714 N.3     1  UNL1       -0.2974
      5 C         145.7017  141.2842  163.3462 C.3     1  UNL1        0.0690
      6 C         144.6933  141.2646  164.4565 C.3     1  UNL1        0.0236
      7 H         146.4951  142.8396  162.2855 H       1  UNL1        0.1232
      8 C         143.2638  141.5058  165.7282 C.ar    1  UNL1       -0.0204
      9 C         143.0226  142.2202  167.0248 C.ar    1  UNL1       -0.0042
     10 C         142.6898  141.4387  168.2611 C.ar    1  UNL1       -0.0003
     11 C         142.5982  139.9427  168.2007 C.ar    1  UNL1       -0.0000
     12 C         142.8394  139.2283  166.9041 C.ar    1  UNL1       -0.0003
     13 C         143.1723  140.0098  165.6678 C.ar    1  UNL1       -0.0042
     14 C         142.3845  143.0387  164.9566 C.3     1  UNL1        0.1466
     15 O         141.3316  143.4478  163.9696 O.3     1  UNL1       -0.3487
     16 C         139.9735  142.8127  164.0154 C.3     1  UNL1        0.1687
     17 CL        138.9290  139.6415  167.9969 Cl      1  UNL1       -0.0613
     18 C         139.2899  139.8403  166.5546 C.ar    1  UNL1        0.1390
     19 C         139.4512  141.2270  166.0061 C.ar    1  UNL1        0.0290
     20 C         139.8121  141.4258  164.5638 C.ar    1  UNL1        0.0120
     21 C         140.0116  140.2379  163.6700 C.ar    1  UNL1        0.0290
     22 C         139.8502  138.8512  164.2184 C.ar    1  UNL1        0.1390
     23 CL        140.0497  137.6632  163.3246 Cl      1  UNL1       -0.0613
     24 N         139.4894  138.6524  165.6607 N.ar    1  UNL1       -0.2226
@<TRIPOS>BOND
     1    17    18    1
     2    18    19   ar
     3    19    20   ar
     4    20    16    1
     5    16    15    1
     6    15    14    1
     7    14     1    1
     8     1     8    1
     9     8     9   ar
    10     9    10   ar
    11    10    11   ar
    12    11    12   ar
    13    12    13   ar
    14     1     2    1
    15     2     3    1
    16     3     4    1
    17     4     5    1
    18     5     6    1
    19    20    21   ar
    20    21    22   ar
    21    22    23    1
    22    22    24   ar
    23    24    18   ar
    24     6     1    1
    25    13     8   ar
    26     4     7    1
