@<TRIPOS>MOLECULE
*****
 37 42 0 0 0
SMALL
GASTEIGER

@<TRIPOS>ATOM
      1 C         140.4441  145.2650  158.6643 C.ar    1  UNL1        0.2474
      2 N         141.4344  144.3145  159.2692 N.ar    1  UNL1       -0.2073
      3 C         141.3795  144.4742  160.7596 C.ar    1  UNL1        0.1147
      4 C         142.1298  143.7998  161.8697 C.ar    1  UNL1       -0.0039
      5 C         141.8558  144.1747  163.2959 C.ar    1  UNL1       -0.0231
      6 C         140.8316  145.2238  163.6123 C.ar    1  UNL1       -0.0013
      7 C         140.0812  145.8983  162.5023 C.ar    1  UNL1        0.0388
      8 C         140.3552  145.5235  161.0759 C.ar    1  UNL1        0.1645
      9 O         139.7771  146.0122  159.7809 O.2     1  UNL1       -0.4333
     10 C         142.4860  143.6303  164.5436 C.3     1  UNL1        0.0434
     11 C         143.5459  142.5767  164.6730 C.3     1  UNL1        0.0768
     12 N         144.2372  141.8073  163.5868 N.3     1  UNL1       -0.2720
     13 C         144.0395  141.9014  162.1028 C.3     1  UNL1        0.0769
     14 C         143.1016  142.7881  161.3386 C.3     1  UNL1        0.0450
     15 C         140.3701  147.2390  153.7674 C.3     1  UNL1        0.0540
     16 C         140.1350  146.3453  154.9491 C.ar    1  UNL1        0.0806
     17 C         140.6371  146.5770  156.3434 C.ar    1  UNL1        0.0399
     18 C         140.1690  145.4380  157.1999 C.ar    1  UNL1        0.1325
     19 N         139.3777  144.5024  156.3349 N.ar    1  UNL1       -0.2446
     20 C         138.7223  143.2295  156.7824 C.3     1  UNL1        0.1539
     21 N         139.3566  145.0631  154.9438 N.ar    1  UNL1       -0.1735
     22 C         145.2618  140.8122  164.0450 C.3     1  UNL1        0.0730
     23 C         144.8934  139.3644  164.1798 C.3     1  UNL1        0.0294
     24 C         144.1222  138.8950  165.3778 C.3     1  UNL1        0.0666
     25 S         142.6910  138.4714  165.2295 S.3     1  UNL1       -0.0756
     26 C         141.6361  139.4902  164.9144 C.ar    1  UNL1        0.1933
     27 N         140.8856  140.3202  165.9134 N.ar    1  UNL1       -0.1220
     28 N         139.9321  141.2008  165.1614 N.ar    1  UNL1       -0.1250
     29 C         140.0933  140.9150  163.6978 C.ar    1  UNL1        0.2029
     30 N         141.1464  139.8577  163.5451 N.ar    1  UNL1       -0.2860
     31 C         141.6257  139.2712  162.2504 C.3     1  UNL1        0.1341
     32 C         139.3346  141.5712  162.5825 C.ar    1  UNL1        0.1964
     33 O         139.5174  141.3077  161.1173 O.2     1  UNL1       -0.4283
     34 C         138.5557  142.1797  160.3659 C.ar    1  UNL1        0.2849
     35 N         137.7785  142.9823  161.3668 N.ar    1  UNL1       -0.2085
     36 C         138.2599  142.6061  162.7368 C.ar    1  UNL1        0.1001
     37 C         137.7551  143.1667  164.0334 C.3     1  UNL1        0.0556
@<TRIPOS>BOND
     1    15    16    1
     2    16    17   ar
     3    17    18   ar
     4    18     1    1
     5     1     2   ar
     6     2     3   ar
     7     3     4   ar
     8     4     5   ar
     9     5     6   ar
    10     6     7   ar
    11     7     8   ar
    12     8     9   ar
    13     5    10    1
    14    10    11    1
    15    11    12    1
    16    12    22    1
    17    22    23    1
    18    23    24    1
    19    24    25    1
    20    25    26    1
    21    26    27   ar
    22    27    28   ar
    23    28    29   ar
    24    29    32    1
    25    32    33   ar
    26    33    34   ar
    27    34    35   ar
    28    35    36   ar
    29    36    37    1
    30    29    30   ar
    31    30    31    1
    32    12    13    1
    33    13    14    1
    34    18    19   ar
    35    19    20    1
    36    19    21   ar
    37    21    16   ar
    38     9     1   ar
    39    30    26   ar
    40     8     3   ar
    41    36    32   ar
    42    14     4    1
@<TRIPOS>MOLECULE
*****
 37 42 0 0 0
SMALL
GASTEIGER

@<TRIPOS>ATOM
      1 C         140.5121  145.2688  158.1734 C.ar    1  UNL1        0.2474
      2 N         141.5849  144.4727  158.8556 N.ar    1  UNL1       -0.2073
      3 C         141.4503  144.6852  160.3343 C.ar    1  UNL1        0.1147
      4 C         142.2310  144.1540  161.4999 C.ar    1  UNL1       -0.0039
      5 C         141.8558  144.5502  162.8970 C.ar    1  UNL1       -0.0231
      6 C         140.6999  145.4777  163.1288 C.ar    1  UNL1       -0.0013
      7 C         139.9192  146.0089  161.9633 C.ar    1  UNL1        0.0388
      8 C         140.2944  145.6127  160.5661 C.ar    1  UNL1        0.1645
      9 O         139.7146  145.9734  159.2305 O.2     1  UNL1       -0.4333
     10 C         142.4960  144.1389  164.1897 C.3     1  UNL1        0.0434
     11 C         143.6696  143.2296  164.4043 C.3     1  UNL1        0.0768
     12 N         144.4927  142.5072  163.3794 N.3     1  UNL1       -0.2720
     13 C         144.3457  142.5156  161.8867 C.3     1  UNL1        0.0769
     14 C         143.3391  143.2485  161.0502 C.3     1  UNL1        0.0450
     15 C         140.4789  144.0939  153.0256 C.3     1  UNL1        0.0540
     16 C         140.2627  144.8067  154.3277 C.ar    1  UNL1        0.0806
     17 C         140.6986  144.3248  155.6796 C.ar    1  UNL1        0.0399
     18 C         140.2780  145.3468  156.6938 C.ar    1  UNL1        0.1325
     19 N         139.5822  146.4603  155.9687 N.ar    1  UNL1       -0.2446
     20 C         138.9984  147.6915  156.5959 C.3     1  UNL1        0.1539
     21 N         139.5728  146.1266  154.5064 N.ar    1  UNL1       -0.1735
     22 C         145.6108  141.6651  163.9185 C.3     1  UNL1        0.0730
     23 C         145.4012  140.1975  164.1477 C.3     1  UNL1        0.0294
     24 C         144.3409  139.4627  163.3823 C.3     1  UNL1        0.0666
     25 S         143.1175  138.9602  164.0898 S.3     1  UNL1       -0.0756
     26 C         143.0802  138.9228  165.5889 C.ar    1  UNL1        0.1933
     27 N         143.8532  137.9840  166.4669 N.ar    1  UNL1       -0.1220
     28 N         143.5141  138.2986  167.8938 N.ar    1  UNL1       -0.1250
     29 C         142.5315  139.4320  167.8976 C.ar    1  UNL1        0.2029
     30 N         142.2633  139.8178  166.4731 N.ar    1  UNL1       -0.2860
     31 C         141.3402  140.9072  166.0135 C.3     1  UNL1        0.1341
     32 C         141.9237  140.0679  169.1126 C.ar    1  UNL1        0.1964
     33 O         140.8431  139.4779  169.9693 O.2     1  UNL1       -0.4283
     34 C         140.5414  140.4508  171.0705 C.ar    1  UNL1        0.2849
     35 N         141.4356  141.6421  170.8943 N.ar    1  UNL1       -0.2085
     36 C         142.2900  141.4054  169.6843 C.ar    1  UNL1        0.1001
     37 C         143.3283  142.3420  169.1413 C.3     1  UNL1        0.0556
@<TRIPOS>BOND
     1    15    16    1
     2    16    17   ar
     3    17    18   ar
     4    18     1    1
     5     1     2   ar
     6     2     3   ar
     7     3     4   ar
     8     4     5   ar
     9     5     6   ar
    10     6     7   ar
    11     7     8   ar
    12     8     9   ar
    13     5    10    1
    14    10    11    1
    15    11    12    1
    16    12    22    1
    17    22    23    1
    18    23    24    1
    19    24    25    1
    20    25    26    1
    21    26    27   ar
    22    27    28   ar
    23    28    29   ar
    24    29    32    1
    25    32    33   ar
    26    33    34   ar
    27    34    35   ar
    28    35    36   ar
    29    36    37    1
    30    29    30   ar
    31    30    31    1
    32    12    13    1
    33    13    14    1
    34    18    19   ar
    35    19    20    1
    36    19    21   ar
    37    21    16   ar
    38     9     1   ar
    39    30    26   ar
    40     8     3   ar
    41    36    32   ar
    42    14     4    1
@<TRIPOS>MOLECULE
*****
 37 42 0 0 0
SMALL
GASTEIGER

@<TRIPOS>ATOM
      1 C         142.6170  138.3325  158.5739 C.ar    1  UNL1        0.2474
      2 N         142.4968  138.0725  160.0464 N.ar    1  UNL1       -0.2073
      3 C         143.0568  139.2588  160.7737 C.ar    1  UNL1        0.1147
      4 C         143.2024  139.5630  162.2354 C.ar    1  UNL1       -0.0039
      5 C         143.8142  140.8603  162.6740 C.ar    1  UNL1       -0.0231
      6 C         144.2806  141.8534  161.6513 C.ar    1  UNL1       -0.0013
      7 C         144.1351  141.5492  160.1896 C.ar    1  UNL1        0.0388
      8 C         143.5232  140.2519  159.7509 C.ar    1  UNL1        0.1645
      9 O         143.2514  139.6794  158.3913 O.2     1  UNL1       -0.4333
     10 C         144.0510  141.3582  164.0691 C.3     1  UNL1        0.0434
     11 C         143.7342  140.6817  165.3699 C.3     1  UNL1        0.0768
     12 N         143.1025  139.3404  165.5969 N.3     1  UNL1       -0.2720
     13 C         142.6315  138.3441  164.5793 C.3     1  UNL1        0.0769
     14 C         142.6760  138.4432  163.0832 C.3     1  UNL1        0.0450
     15 C         142.6195  134.5217  154.9190 C.3     1  UNL1        0.0540
     16 C         142.1809  135.6562  155.7968 C.ar    1  UNL1        0.0806
     17 C         143.0133  136.3324  156.8454 C.ar    1  UNL1        0.0399
     18 C         142.1797  137.4078  157.4767 C.ar    1  UNL1        0.1325
     19 N         140.8321  137.3963  156.8183 N.ar    1  UNL1       -0.2446
     20 C         139.6851  138.3073  157.1413 C.3     1  UNL1        0.1539
     21 N         140.8327  136.3137  155.7800 N.ar    1  UNL1       -0.1735
     22 C         142.9173  138.9426  167.0313 C.3     1  UNL1        0.0730
     23 C         142.6692  139.9916  168.0746 C.3     1  UNL1        0.0294
     24 C         141.5405  139.8284  169.0489 C.3     1  UNL1        0.0666
     25 S         140.2272  140.5074  168.7958 S.3     1  UNL1       -0.0756
     26 C         139.3674  140.0728  167.6460 C.ar    1  UNL1        0.1933
     27 N         138.3092  139.0106  167.6886 N.ar    1  UNL1       -0.1220
     28 N         137.7026  138.9054  166.3208 N.ar    1  UNL1       -0.1250
     29 C         138.3861  139.9026  165.4328 C.ar    1  UNL1        0.2029
     30 N         139.4150  140.6241  166.2518 N.ar    1  UNL1       -0.2860
     31 C         140.3306  141.7068  165.7625 C.3     1  UNL1        0.1341
     32 C         138.0922  140.1371  163.9807 C.ar    1  UNL1        0.1964
     33 O         138.1864  139.1160  162.8860 O.2     1  UNL1       -0.4283
     34 C         137.8049  139.7817  161.5970 C.ar    1  UNL1        0.2849
     35 N         137.4751  141.2143  161.8951 N.ar    1  UNL1       -0.2085
     36 C         137.6526  141.4339  163.3683 C.ar    1  UNL1        0.1001
     37 C         137.4297  142.7240  164.1006 C.3     1  UNL1        0.0556
@<TRIPOS>BOND
     1    15    16    1
     2    16    17   ar
     3    17    18   ar
     4    18     1    1
     5     1     2   ar
     6     2     3   ar
     7     3     4   ar
     8     4     5   ar
     9     5     6   ar
    10     6     7   ar
    11     7     8   ar
    12     8     9   ar
    13     5    10    1
    14    10    11    1
    15    11    12    1
    16    12    22    1
    17    22    23    1
    18    23    24    1
    19    24    25    1
    20    25    26    1
    21    26    27   ar
    22    27    28   ar
    23    28    29   ar
    24    29    32    1
    25    32    33   ar
    26    33    34   ar
    27    34    35   ar
    28    35    36   ar
    29    36    37    1
    30    29    30   ar
    31    30    31    1
    32    12    13    1
    33    13    14    1
    34    18    19   ar
    35    19    20    1
    36    19    21   ar
    37    21    16   ar
    38     9     1   ar
    39    30    26   ar
    40     8     3   ar
    41    36    32   ar
    42    14     4    1
@<TRIPOS>MOLECULE
*****
 37 42 0 0 0
SMALL
GASTEIGER

@<TRIPOS>ATOM
      1 C         141.1967  141.2433  167.3091 C.ar    1  UNL1        0.2474
      2 N         141.2282  140.3176  166.1292 N.ar    1  UNL1       -0.2073
      3 C         142.3080  140.7874  165.2002 C.ar    1  UNL1        0.1147
      4 C         142.7945  140.2650  163.8809 C.ar    1  UNL1       -0.0039
      5 C         143.9168  140.9586  163.1674 C.ar    1  UNL1       -0.0231
      6 C         144.5528  142.1746  163.7730 C.ar    1  UNL1       -0.0013
      7 C         144.0664  142.6970  165.0923 C.ar    1  UNL1        0.0388
      8 C         142.9440  142.0034  165.8059 C.ar    1  UNL1        0.1645
      9 O         142.2572  142.2852  167.1093 O.2     1  UNL1       -0.4333
     10 C         144.5491  140.6063  161.8535 C.3     1  UNL1        0.0434
     11 C         144.2151  139.4734  160.9287 C.3     1  UNL1        0.0768
     12 N         143.1665  138.4131  161.0895 N.3     1  UNL1       -0.2720
     13 C         142.1927  138.2236  162.2146 C.3     1  UNL1        0.0769
     14 C         142.0272  139.0478  163.4569 C.3     1  UNL1        0.0450
     15 C         137.4761  139.5237  170.6380 C.3     1  UNL1        0.0540
     16 C         138.5577  140.3540  170.0129 C.ar    1  UNL1        0.0806
     17 C         139.2675  140.0536  168.7261 C.ar    1  UNL1        0.0399
     18 C         140.2679  141.1445  168.4829 C.ar    1  UNL1        0.1325
     19 N         140.1764  142.1191  169.6193 N.ar    1  UNL1       -0.2446
     20 C         140.9976  143.3638  169.7816 C.3     1  UNL1        0.1539
     21 N         139.1195  141.6307  170.5649 N.ar    1  UNL1       -0.1735
     22 C         143.0801  137.4094  159.9781 C.3     1  UNL1        0.0730
     23 C         142.7010  137.8516  158.5958 C.3     1  UNL1        0.0294
     24 C         141.2835  138.2389  158.2946 C.3     1  UNL1        0.0666
     25 S         140.8749  139.6815  158.3372 S.3     1  UNL1       -0.0756
     26 C         139.7654  140.1202  159.2463 C.ar    1  UNL1        0.1933
     27 N         138.3527  139.6167  159.2200 N.ar    1  UNL1       -0.1220
     28 N         137.5880  140.3248  160.2988 N.ar    1  UNL1       -0.1250
     29 C         138.5281  141.2660  160.9918 C.ar    1  UNL1        0.2029
     30 N         139.8739  141.1396  160.3414 N.ar    1  UNL1       -0.2860
     31 C         141.1108  141.8992  160.7196 C.3     1  UNL1        0.1341
     32 C         138.1831  142.1741  162.1347 C.ar    1  UNL1        0.1964
     33 O         137.9425  143.6519  162.0450 O.2     1  UNL1       -0.4283
     34 C         137.6288  144.1551  163.4228 C.ar    1  UNL1        0.2849
     35 N         137.6755  142.9882  164.3642 N.ar    1  UNL1       -0.2085
     36 C         138.0181  141.7639  163.5681 C.ar    1  UNL1        0.1001
     37 C         138.1692  140.3735  164.1103 C.3     1  UNL1        0.0556
@<TRIPOS>BOND
     1    15    16    1
     2    16    17   ar
     3    17    18   ar
     4    18     1    1
     5     1     2   ar
     6     2     3   ar
     7     3     4   ar
     8     4     5   ar
     9     5     6   ar
    10     6     7   ar
    11     7     8   ar
    12     8     9   ar
    13     5    10    1
    14    10    11    1
    15    11    12    1
    16    12    22    1
    17    22    23    1
    18    23    24    1
    19    24    25    1
    20    25    26    1
    21    26    27   ar
    22    27    28   ar
    23    28    29   ar
    24    29    32    1
    25    32    33   ar
    26    33    34   ar
    27    34    35   ar
    28    35    36   ar
    29    36    37    1
    30    29    30   ar
    31    30    31    1
    32    12    13    1
    33    13    14    1
    34    18    19   ar
    35    19    20    1
    36    19    21   ar
    37    21    16   ar
    38     9     1   ar
    39    30    26   ar
    40     8     3   ar
    41    36    32   ar
    42    14     4    1
@<TRIPOS>MOLECULE
*****
 37 42 0 0 0
SMALL
GASTEIGER

@<TRIPOS>ATOM
      1 C         140.6117  145.0942  158.4939 C.ar    1  UNL1        0.2474
      2 N         141.5817  144.1512  159.1419 N.ar    1  UNL1       -0.2073
      3 C         141.5469  144.3949  160.6215 C.ar    1  UNL1        0.1147
      4 C         142.2901  143.7624  161.7607 C.ar    1  UNL1       -0.0039
      5 C         142.0416  144.2234  163.1662 C.ar    1  UNL1       -0.0231
      6 C         141.0501  145.3169  163.4328 C.ar    1  UNL1       -0.0013
      7 C         140.3070  145.9495  162.2936 C.ar    1  UNL1        0.0388
      8 C         140.5554  145.4885  160.8880 C.ar    1  UNL1        0.1645
      9 O         139.9774  145.9206  159.5730 O.2     1  UNL1       -0.4333
     10 C         142.6697  143.7317  164.4366 C.3     1  UNL1        0.0434
     11 C         143.7014  142.6574  164.6150 C.3     1  UNL1        0.0768
     12 N         144.3597  141.8098  163.5672 N.3     1  UNL1       -0.2720
     13 C         144.1490  141.8268  162.0822 C.3     1  UNL1        0.0769
     14 C         143.2279  142.6958  161.2782 C.3     1  UNL1        0.0450
     15 C         140.6785  146.6920  153.4616 C.3     1  UNL1        0.0540
     16 C         140.3568  145.9277  154.7116 C.ar    1  UNL1        0.0806
     17 C         140.9190  146.1931  156.0767 C.ar    1  UNL1        0.0399
     18 C         140.3261  145.1932  157.0246 C.ar    1  UNL1        0.1325
     19 N         139.3975  144.3098  156.2454 N.ar    1  UNL1       -0.2446
     20 C         138.5914  143.1722  156.7986 C.3     1  UNL1        0.1539
     21 N         139.4164  144.7637  154.8159 N.ar    1  UNL1       -0.1735
     22 C         145.3612  140.8132  164.0711 C.3     1  UNL1        0.0730
     23 C         144.9721  139.3732  164.2294 C.3     1  UNL1        0.0294
     24 C         144.0415  138.9646  165.3327 C.3     1  UNL1        0.0666
     25 S         142.6481  138.5131  165.0099 S.3     1  UNL1       -0.0756
     26 C         141.7814  139.3410  164.1079 C.ar    1  UNL1        0.1933
     27 N         141.6912  139.2182  162.6157 N.ar    1  UNL1       -0.1220
     28 N         140.7069  140.2384  162.1253 N.ar    1  UNL1       -0.1250
     29 C         140.1888  140.9916  163.3145 C.ar    1  UNL1        0.2029
     30 N         140.8529  140.4370  164.5399 N.ar    1  UNL1       -0.2860
     31 C         140.6279  140.8976  165.9496 C.3     1  UNL1        0.1341
     32 C         139.1831  142.1041  163.2838 C.ar    1  UNL1        0.1964
     33 O         138.6874  142.8775  164.4695 O.2     1  UNL1       -0.4283
     34 C         137.6945  143.8900  163.9805 C.ar    1  UNL1        0.2849
     35 N         137.5765  143.7423  162.4925 N.ar    1  UNL1       -0.2085
     36 C         138.4966  142.6385  162.0619 C.ar    1  UNL1        0.1001
     37 C         138.6951  142.1543  160.6561 C.3     1  UNL1        0.0556
@<TRIPOS>BOND
     1    15    16    1
     2    16    17   ar
     3    17    18   ar
     4    18     1    1
     5     1     2   ar
     6     2     3   ar
     7     3     4   ar
     8     4     5   ar
     9     5     6   ar
    10     6     7   ar
    11     7     8   ar
    12     8     9   ar
    13     5    10    1
    14    10    11    1
    15    11    12    1
    16    12    22    1
    17    22    23    1
    18    23    24    1
    19    24    25    1
    20    25    26    1
    21    26    27   ar
    22    27    28   ar
    23    28    29   ar
    24    29    32    1
    25    32    33   ar
    26    33    34   ar
    27    34    35   ar
    28    35    36   ar
    29    36    37    1
    30    29    30   ar
    31    30    31    1
    32    12    13    1
    33    13    14    1
    34    18    19   ar
    35    19    20    1
    36    19    21   ar
    37    21    16   ar
    38     9     1   ar
    39    30    26   ar
    40     8     3   ar
    41    36    32   ar
    42    14     4    1
@<TRIPOS>MOLECULE
*****
 37 42 0 0 0
SMALL
GASTEIGER

@<TRIPOS>ATOM
      1 C         139.6644  142.4518  159.8751 C.ar    1  UNL1        0.2474
      2 N         139.6195  142.3746  161.3724 N.ar    1  UNL1       -0.2073
      3 C         139.3868  140.9432  161.7559 C.ar    1  UNL1        0.1147
      4 C         139.2521  140.2706  163.0899 C.ar    1  UNL1       -0.0039
      5 C         139.0186  138.7909  163.1636 C.ar    1  UNL1       -0.0231
      6 C         138.9197  137.9835  161.9033 C.ar    1  UNL1       -0.0013
      7 C         139.0544  138.6560  160.5693 C.ar    1  UNL1        0.0388
      8 C         139.2879  140.1358  160.4955 C.ar    1  UNL1        0.1645
      9 O         139.4595  141.0682  159.3331 O.2     1  UNL1       -0.4333
     10 C         138.8568  137.9290  164.3806 C.3     1  UNL1        0.0434
     11 C         138.8886  138.3342  165.8245 C.3     1  UNL1        0.0768
     12 N         139.0900  139.7013  166.4079 N.3     1  UNL1       -0.2720
     13 C         139.3094  141.0008  165.6917 C.3     1  UNL1        0.0769
     14 C         139.3815  141.2543  164.2150 C.3     1  UNL1        0.0450
     15 C         140.2629  145.7348  155.7830 C.3     1  UNL1        0.0540
     16 C         140.1521  145.2035  157.1814 C.ar    1  UNL1        0.0806
     17 C         139.9178  143.7724  157.5649 C.ar    1  UNL1        0.0399
     18 C         139.8770  143.6945  159.0623 C.ar    1  UNL1        0.1325
     19 N         140.0861  145.0774  159.6042 N.ar    1  UNL1       -0.2446
     20 C         140.1194  145.4605  161.0541 C.3     1  UNL1        0.1539
     21 N         140.2561  146.0101  158.4418 N.ar    1  UNL1       -0.1735
     22 C         139.0693  139.7791  167.9058 C.3     1  UNL1        0.0730
     23 C         140.0673  140.6366  168.6262 C.3     1  UNL1        0.0294
     24 C         141.1975  140.0002  169.3798 C.3     1  UNL1        0.0666
     25 S         142.4164  139.5270  168.6450 S.3     1  UNL1       -0.0756
     26 C         142.5765  139.8298  167.1846 C.ar    1  UNL1        0.1933
     27 N         142.4139  138.8524  166.0585 N.ar    1  UNL1       -0.1220
     28 N         142.6642  139.5816  164.7718 N.ar    1  UNL1       -0.1250
     29 C         142.9816  141.0098  165.1028 C.ar    1  UNL1        0.2029
     30 N         142.9274  141.1632  166.5940 N.ar    1  UNL1       -0.2860
     31 C         143.1799  142.4280  167.3599 C.3     1  UNL1        0.1341
     32 C         143.2977  142.0943  164.1158 C.ar    1  UNL1        0.1964
     33 O         142.3294  143.1045  163.5758 O.2     1  UNL1       -0.4283
     34 C         143.0709  143.9935  162.6218 C.ar    1  UNL1        0.2849
     35 N         144.4974  143.5326  162.5723 N.ar    1  UNL1       -0.2085
     36 C         144.6376  142.3588  163.4957 C.ar    1  UNL1        0.1001
     37 C         145.8968  141.5854  163.7535 C.3     1  UNL1        0.0556
@<TRIPOS>BOND
     1    15    16    1
     2    16    17   ar
     3    17    18   ar
     4    18     1    1
     5     1     2   ar
     6     2     3   ar
     7     3     4   ar
     8     4     5   ar
     9     5     6   ar
    10     6     7   ar
    11     7     8   ar
    12     8     9   ar
    13     5    10    1
    14    10    11    1
    15    11    12    1
    16    12    22    1
    17    22    23    1
    18    23    24    1
    19    24    25    1
    20    25    26    1
    21    26    27   ar
    22    27    28   ar
    23    28    29   ar
    24    29    32    1
    25    32    33   ar
    26    33    34   ar
    27    34    35   ar
    28    35    36   ar
    29    36    37    1
    30    29    30   ar
    31    30    31    1
    32    12    13    1
    33    13    14    1
    34    18    19   ar
    35    19    20    1
    36    19    21   ar
    37    21    16   ar
    38     9     1   ar
    39    30    26   ar
    40     8     3   ar
    41    36    32   ar
    42    14     4    1
@<TRIPOS>MOLECULE
*****
 37 42 0 0 0
SMALL
GASTEIGER

@<TRIPOS>ATOM
      1 C         141.0205  144.5781  159.4241 C.ar    1  UNL1        0.2474
      2 N         140.2604  143.5715  160.2359 N.ar    1  UNL1       -0.2073
      3 C         140.8284  143.5714  161.6241 C.ar    1  UNL1        0.1147
      4 C         140.4774  142.7848  162.8522 C.ar    1  UNL1       -0.0039
      5 C         141.2375  143.0047  164.1264 C.ar    1  UNL1       -0.0231
      6 C         142.3487  144.0112  164.1727 C.ar    1  UNL1       -0.0013
      7 C         142.6998  144.7978  162.9447 C.ar    1  UNL1        0.0388
      8 C         141.9397  144.5779  161.6704 C.ar    1  UNL1        0.1645
      9 O         142.0584  145.2001  160.3107 O.2     1  UNL1       -0.4333
     10 C         141.0515  142.3325  165.4544 C.3     1  UNL1        0.0434
     11 C         140.0592  141.2742  165.8360 C.3     1  UNL1        0.0768
     12 N         139.0081  140.6269  164.9840 N.3     1  UNL1       -0.2720
     13 C         138.6894  140.8779  163.5399 C.3     1  UNL1        0.0769
     14 C         139.3433  141.8383  162.5911 C.3     1  UNL1        0.0450
     15 C         139.6116  147.1214  155.0164 C.3     1  UNL1        0.0540
     16 C         140.1367  146.0743  155.9534 C.ar    1  UNL1        0.0806
     17 C         140.1858  146.1744  157.4493 C.ar    1  UNL1        0.0399
     18 C         140.7843  144.9053  157.9794 C.ar    1  UNL1        0.1325
     19 N         141.1052  144.0208  156.8112 N.ar    1  UNL1       -0.2446
     20 C         141.7186  142.6539  156.8826 C.3     1  UNL1        0.1539
     21 N         140.7050  144.7433  155.5591 N.ar    1  UNL1       -0.1735
     22 C         138.1638  139.5917  165.6663 C.3     1  UNL1        0.0730
     23 C         138.6014  138.1569  165.6798 C.3     1  UNL1        0.0294
     24 C         139.2125  137.5476  164.4529 C.3     1  UNL1        0.0666
     25 S         140.6755  137.2175  164.4287 S.3     1  UNL1       -0.0756
     26 C         141.6837  138.2970  164.1670 C.ar    1  UNL1        0.1933
     27 N         142.6272  138.8850  165.1739 N.ar    1  UNL1       -0.1220
     28 N         143.4520  139.9293  164.4818 N.ar    1  UNL1       -0.1250
     29 C         143.0182  139.9867  163.0470 C.ar    1  UNL1        0.2029
     30 N         141.9253  138.9778  162.8525 N.ar    1  UNL1       -0.2860
     31 C         141.2012  138.6989  161.5688 C.3     1  UNL1        0.1341
     32 C         143.5788  140.8937  161.9920 C.ar    1  UNL1        0.1964
     33 O         143.0537  141.0525  160.5960 O.2     1  UNL1       -0.4283
     34 C         143.9134  142.0581  159.8890 C.ar    1  UNL1        0.2849
     35 N         144.9697  142.5208  160.8481 N.ar    1  UNL1       -0.2085
     36 C         144.7630  141.8012  162.1479 C.ar    1  UNL1        0.1001
     37 C         145.5944  141.9610  163.3861 C.3     1  UNL1        0.0556
@<TRIPOS>BOND
     1    15    16    1
     2    16    17   ar
     3    17    18   ar
     4    18     1    1
     5     1     2   ar
     6     2     3   ar
     7     3     4   ar
     8     4     5   ar
     9     5     6   ar
    10     6     7   ar
    11     7     8   ar
    12     8     9   ar
    13     5    10    1
    14    10    11    1
    15    11    12    1
    16    12    22    1
    17    22    23    1
    18    23    24    1
    19    24    25    1
    20    25    26    1
    21    26    27   ar
    22    27    28   ar
    23    28    29   ar
    24    29    32    1
    25    32    33   ar
    26    33    34   ar
    27    34    35   ar
    28    35    36   ar
    29    36    37    1
    30    29    30   ar
    31    30    31    1
    32    12    13    1
    33    13    14    1
    34    18    19   ar
    35    19    20    1
    36    19    21   ar
    37    21    16   ar
    38     9     1   ar
    39    30    26   ar
    40     8     3   ar
    41    36    32   ar
    42    14     4    1
@<TRIPOS>MOLECULE
*****
 37 42 0 0 0
SMALL
GASTEIGER

@<TRIPOS>ATOM
      1 C         141.5737  140.8000  166.5902 C.ar    1  UNL1        0.2474
      2 N         142.1504  141.4389  165.3617 N.ar    1  UNL1       -0.2073
      3 C         142.2320  140.3927  164.2900 C.ar    1  UNL1        0.1147
      4 C         142.7176  140.4444  162.8716 C.ar    1  UNL1       -0.0039
      5 C         142.6768  139.2107  162.0195 C.ar    1  UNL1       -0.0231
      6 C         142.1505  137.9252  162.5856 C.ar    1  UNL1       -0.0013
      7 C         141.6650  137.8734  164.0039 C.ar    1  UNL1        0.0388
      8 C         141.7057  139.1071  164.8561 C.ar    1  UNL1        0.1645
      9 O         141.2989  139.3589  166.2777 O.2     1  UNL1       -0.4333
     10 C         143.1081  139.0451  160.5924 C.3     1  UNL1        0.0434
     11 C         143.6867  140.0724  159.6650 C.3     1  UNL1        0.0768
     12 N         143.9769  141.5189  159.9357 N.3     1  UNL1       -0.2720
     13 C         143.7601  142.2955  161.2006 C.3     1  UNL1        0.0769
     14 C         143.1997  141.8173  162.5072 C.3     1  UNL1        0.0450
     15 C         140.1834  144.4083  170.1859 C.3     1  UNL1        0.0540
     16 C         140.6779  143.1410  169.5538 C.ar    1  UNL1        0.0806
     17 C         140.7714  142.8680  168.0819 C.ar    1  UNL1        0.0399
     18 C         141.3169  141.4824  167.9011 C.ar    1  UNL1        0.1325
     19 N         141.5606  140.8991  169.2614 N.ar    1  UNL1       -0.2446
     20 C         142.1038  139.5310  169.5496 C.3     1  UNL1        0.1539
     21 N         141.1656  141.9241  170.2828 N.ar    1  UNL1       -0.1735
     22 C         144.5610  142.2910  158.7900 C.3     1  UNL1        0.0730
     23 C         143.6865  142.7135  157.6468 C.3     1  UNL1        0.0294
     24 C         142.7654  143.8872  157.8011 C.3     1  UNL1        0.0666
     25 S         141.2889  143.6676  157.9478 S.3     1  UNL1       -0.0756
     26 C         140.7246  143.2176  159.2628 C.ar    1  UNL1        0.1933
     27 N         140.5014  141.7961  159.6863 N.ar    1  UNL1       -0.1220
     28 N         139.9233  141.8100  161.0704 N.ar    1  UNL1       -0.1250
     29 C         139.7892  143.2403  161.5023 C.ar    1  UNL1        0.2029
     30 N         140.2845  144.1102  160.3851 N.ar    1  UNL1       -0.2860
     31 C         140.3313  145.6095  160.3896 C.3     1  UNL1        0.1341
     32 C         139.2540  143.7169  162.8199 C.ar    1  UNL1        0.1964
     33 O         137.8478  143.5474  163.3137 O.2     1  UNL1       -0.4283
     34 C         137.7556  144.1724  164.6741 C.ar    1  UNL1        0.2849
     35 N         139.1049  144.7283  165.0212 N.ar    1  UNL1       -0.2085
     36 C         140.0309  144.4467  163.8752 C.ar    1  UNL1        0.1001
     37 C         141.4796  144.8281  163.7982 C.3     1  UNL1        0.0556
@<TRIPOS>BOND
     1    15    16    1
     2    16    17   ar
     3    17    18   ar
     4    18     1    1
     5     1     2   ar
     6     2     3   ar
     7     3     4   ar
     8     4     5   ar
     9     5     6   ar
    10     6     7   ar
    11     7     8   ar
    12     8     9   ar
    13     5    10    1
    14    10    11    1
    15    11    12    1
    16    12    22    1
    17    22    23    1
    18    23    24    1
    19    24    25    1
    20    25    26    1
    21    26    27   ar
    22    27    28   ar
    23    28    29   ar
    24    29    32    1
    25    32    33   ar
    26    33    34   ar
    27    34    35   ar
    28    35    36   ar
    29    36    37    1
    30    29    30   ar
    31    30    31    1
    32    12    13    1
    33    13    14    1
    34    18    19   ar
    35    19    20    1
    36    19    21   ar
    37    21    16   ar
    38     9     1   ar
    39    30    26   ar
    40     8     3   ar
    41    36    32   ar
    42    14     4    1
@<TRIPOS>MOLECULE
*****
 37 42 0 0 0
SMALL
GASTEIGER

@<TRIPOS>ATOM
      1 C         141.7659  143.9587  160.6660 C.ar    1  UNL1        0.2474
      2 N         141.1274  143.7740  162.0108 N.ar    1  UNL1       -0.2073
      3 C         142.2054  143.4164  162.9905 C.ar    1  UNL1        0.1147
      4 C         142.1676  143.1191  164.4603 C.ar    1  UNL1       -0.0039
      5 C         143.4345  142.7855  165.1908 C.ar    1  UNL1       -0.0231
      6 C         144.7392  142.7491  164.4516 C.ar    1  UNL1       -0.0013
      7 C         144.7770  143.0463  162.9818 C.ar    1  UNL1        0.0388
      8 C         143.5102  143.3800  162.2513 C.ar    1  UNL1        0.1645
      9 O         143.2385  143.7151  160.8147 O.2     1  UNL1       -0.4333
     10 C         143.6184  142.4597  166.6434 C.3     1  UNL1        0.0434
     11 C         142.5807  142.3871  167.7243 C.3     1  UNL1        0.0768
     12 N         141.1031  142.6224  167.6194 N.3     1  UNL1       -0.2720
     13 C         140.2980  142.9883  166.4078 C.3     1  UNL1        0.0769
     14 C         140.7717  143.2094  165.0019 C.3     1  UNL1        0.0450
     15 C         140.3657  146.4747  156.2399 C.3     1  UNL1        0.0540
     16 C         140.4127  145.4794  157.3612 C.ar    1  UNL1        0.0806
     17 C         141.3646  145.5013  158.5202 C.ar    1  UNL1        0.0399
     18 C         141.0563  144.3229  159.3956 C.ar    1  UNL1        0.1325
     19 N         139.9138  143.5728  158.7776 N.ar    1  UNL1       -0.2446
     20 C         139.2803  142.3266  159.3215 C.3     1  UNL1        0.1539
     21 N         139.5160  144.2875  157.5203 N.ar    1  UNL1       -0.1735
     22 C         140.3280  142.4718  168.8947 C.3     1  UNL1        0.0730
     23 C         139.5962  141.1941  169.1813 C.3     1  UNL1        0.0294
     24 C         139.9099  139.9570  168.3931 C.3     1  UNL1        0.0666
     25 S         138.9515  139.4714  167.3465 S.3     1  UNL1       -0.0756
     26 C         139.2616  139.6752  165.8931 C.ar    1  UNL1        0.1933
     27 N         138.3183  140.2106  164.8570 N.ar    1  UNL1       -0.1220
     28 N         139.0431  140.2457  163.5441 N.ar    1  UNL1       -0.1250
     29 C         140.4343  139.7318  163.7689 C.ar    1  UNL1        0.2029
     30 N         140.5693  139.3792  165.2207 N.ar    1  UNL1       -0.2860
     31 C         141.7967  138.8276  165.8835 C.3     1  UNL1        0.1341
     32 C         141.5029  139.5947  162.7253 C.ar    1  UNL1        0.1964
     33 O         142.9350  140.0167  162.8690 O.2     1  UNL1       -0.4283
     34 C         143.6442  139.6942  161.5871 C.ar    1  UNL1        0.2849
     35 N         142.6503  139.0729  160.6511 N.ar    1  UNL1       -0.2085
     36 C         141.3269  139.0114  161.3546 C.ar    1  UNL1        0.1001
     37 C         140.0514  138.4628  160.7868 C.3     1  UNL1        0.0556
@<TRIPOS>BOND
     1    15    16    1
     2    16    17   ar
     3    17    18   ar
     4    18     1    1
     5     1     2   ar
     6     2     3   ar
     7     3     4   ar
     8     4     5   ar
     9     5     6   ar
    10     6     7   ar
    11     7     8   ar
    12     8     9   ar
    13     5    10    1
    14    10    11    1
    15    11    12    1
    16    12    22    1
    17    22    23    1
    18    23    24    1
    19    24    25    1
    20    25    26    1
    21    26    27   ar
    22    27    28   ar
    23    28    29   ar
    24    29    32    1
    25    32    33   ar
    26    33    34   ar
    27    34    35   ar
    28    35    36   ar
    29    36    37    1
    30    29    30   ar
    31    30    31    1
    32    12    13    1
    33    13    14    1
    34    18    19   ar
    35    19    20    1
    36    19    21   ar
    37    21    16   ar
    38     9     1   ar
    39    30    26   ar
    40     8     3   ar
    41    36    32   ar
    42    14     4    1
