@<TRIPOS>MOLECULE
*****
 34 37 0 0 0
SMALL
GASTEIGER

@<TRIPOS>ATOM
      1 C         141.5849  137.8833  163.3627 C.ar    1  UNL1        0.1411
      2 C         141.8409  137.9271  164.8401 C.ar    1  UNL1        0.0342
      3 C         143.0256  138.6764  165.3741 C.ar    1  UNL1       -0.0001
      4 C         143.9543  139.3818  164.4306 C.ar    1  UNL1        0.0342
      5 C         143.6982  139.3380  162.9533 C.ar    1  UNL1        0.1411
      6 C         142.5135  138.5888  162.4194 C.ar    1  UNL1        0.0679
      7 C         142.2574  138.5449  160.9421 C.ar    1  UNL1        0.0060
      8 C         141.2751  139.4944  160.3226 C.ar    1  UNL1        0.0025
      9 C         141.0191  139.4505  158.8453 C.ar    1  UNL1        0.0296
     10 C         141.7453  138.4573  157.9874 C.ar    1  UNL1        0.1401
     11 F         141.4893  138.4135  156.5101 F       1  UNL1       -0.2042
     12 C         142.7277  137.5079  158.6068 C.ar    1  UNL1        0.0296
     13 C         142.9837  137.5517  160.0841 C.ar    1  UNL1        0.0025
     14 O         140.4002  137.1341  162.8287 O.3     1  UNL1       -0.4754
     15 C         138.1817  138.1740  161.9642 C.3     1  UNL1        0.0512
     16 C         139.0124  137.6387  163.0927 C.3     1  UNL1        0.2055
     17 C         143.2816  138.7202  166.8514 C.3     1  UNL1        0.0993
     18 N         142.5668  139.7236  167.7071 N.3     1  UNL1       -0.2688
     19 C         141.8723  139.2810  168.9607 C.3     1  UNL1        0.0745
     20 C         141.1575  140.2844  169.8163 C.3     1  UNL1        0.0443
     21 C         141.1372  141.7305  169.4183 C.3     1  UNL1        0.1298
     22 C         141.8316  142.1731  168.1646 C.3     1  UNL1        0.0443
     23 C         142.5464  141.1697  167.3090 C.3     1  UNL1        0.0745
     24 N         141.0319  143.2025  169.1497 N.am    1  UNL1       -0.2838
     25 C         140.2317  143.8199  170.2582 C.2     1  UNL1        0.3068
     26 O         139.8822  145.2727  170.3899 O.2     1  UNL1       -0.2524
     27 N         139.8425  142.7294  171.2119 N.am    1  UNL1       -0.2384
     28 C         140.4021  141.4382  170.6928 C.2     1  UNL1        0.2452
     29 O         140.2528  140.0910  171.3353 O.2     1  UNL1       -0.2730
     30 H         141.4198  143.6797  168.3809 H       1  UNL1        0.1513
     31 H         139.3128  142.8416  172.0341 H       1  UNL1        0.1591
     32 O         144.6268  140.0434  162.0100 O.3     1  UNL1       -0.4754
     33 C         144.6606  141.5426  161.9717 C.3     1  UNL1        0.2055
     34 C         143.4259  142.3115  161.6054 C.3     1  UNL1        0.0512
@<TRIPOS>BOND
     1    15    16    1
     2    16    14    1
     3    14     1    1
     4     1     2   ar
     5     2     3   ar
     6     3    17    1
     7    17    18    1
     8    18    19    1
     9    19    20    1
    10    20    21    1
    11    21    22    1
    12    22    23    1
    13    21    24    1
    14    24    25   am
    15    25    26    2
    16    25    27   am
    17    27    28   am
    18    28    29    2
    19     3     4   ar
    20     4     5   ar
    21     5    32    1
    22    32    33    1
    23    33    34    1
    24     5     6   ar
    25     6     7    1
    26     7     8   ar
    27     8     9   ar
    28     9    10   ar
    29    10    11    1
    30    10    12   ar
    31    12    13   ar
    32     6     1   ar
    33    13     7   ar
    34    23    18    1
    35    28    21    1
    36    24    30    1
    37    27    31    1
@<TRIPOS>MOLECULE
*****
 34 37 0 0 0
SMALL
GASTEIGER

@<TRIPOS>ATOM
      1 C         143.7759  139.4971  162.9825 C.ar    1  UNL1        0.1411
      2 C         143.9900  139.5002  164.4672 C.ar    1  UNL1        0.0342
      3 C         143.0442  138.7566  165.3629 C.ar    1  UNL1       -0.0001
      4 C         141.8842  138.0097  164.7740 C.ar    1  UNL1        0.0342
      5 C         141.6702  138.0066  163.2894 C.ar    1  UNL1        0.1411
      6 C         142.6160  138.7503  162.3936 C.ar    1  UNL1        0.0679
      7 C         142.4019  138.7471  160.9090 C.ar    1  UNL1        0.0060
      8 C         141.6653  139.8784  160.2551 C.ar    1  UNL1        0.0025
      9 C         141.4513  139.8752  158.7704 C.ar    1  UNL1        0.0296
     10 C         141.9738  138.7408  157.9397 C.ar    1  UNL1        0.1401
     11 F         141.7597  138.7377  156.4551 F       1  UNL1       -0.2042
     12 C         142.7104  137.6095  158.5937 C.ar    1  UNL1        0.0296
     13 C         142.9245  137.6127  160.0783 C.ar    1  UNL1        0.0025
     14 O         144.7217  140.2408  162.0868 O.3     1  UNL1       -0.4754
     15 C         143.7095  142.6223  161.8551 C.3     1  UNL1        0.0512
     16 C         144.8602  141.7291  162.2128 C.3     1  UNL1        0.2055
     17 C         143.2582  138.7597  166.8475 C.3     1  UNL1        0.0993
     18 N         142.5408  139.7584  167.7067 N.3     1  UNL1       -0.2688
     19 C         141.8262  139.3059  168.9454 C.3     1  UNL1        0.0745
     20 C         141.1089  140.3046  169.8045 C.3     1  UNL1        0.0443
     21 C         141.1061  141.7557  169.4248 C.3     1  UNL1        0.1298
     22 C         141.8207  142.2082  168.1860 C.3     1  UNL1        0.0443
     23 C         142.5380  141.2095  167.3270 C.3     1  UNL1        0.0745
     24 N         141.0169  143.2319  169.1737 N.am    1  UNL1       -0.2838
     25 C         140.2076  143.8421  170.2796 C.2     1  UNL1        0.3068
     26 O         139.8688  145.2960  170.4253 O.2     1  UNL1       -0.2524
     27 N         139.7966  142.7430  171.2141 N.am    1  UNL1       -0.2384
     28 C         140.3519  141.4536  170.6858 C.2     1  UNL1        0.2452
     29 O         140.1828  140.0997  171.3090 O.2     1  UNL1       -0.2730
     30 H         141.4189  143.7154  168.4162 H       1  UNL1        0.1513
     31 H         139.2571  142.8492  172.0307 H       1  UNL1        0.1591
     32 O         140.5103  137.2597  162.7005 O.3     1  UNL1       -0.4754
     33 C         139.1069  137.6507  163.0583 C.3     1  UNL1        0.2055
     34 C         138.4232  138.7574  162.3117 C.3     1  UNL1        0.0512
@<TRIPOS>BOND
     1    15    16    1
     2    16    14    1
     3    14     1    1
     4     1     2   ar
     5     2     3   ar
     6     3    17    1
     7    17    18    1
     8    18    19    1
     9    19    20    1
    10    20    21    1
    11    21    22    1
    12    22    23    1
    13    21    24    1
    14    24    25   am
    15    25    26    2
    16    25    27   am
    17    27    28   am
    18    28    29    2
    19     3     4   ar
    20     4     5   ar
    21     5    32    1
    22    32    33    1
    23    33    34    1
    24     5     6   ar
    25     6     7    1
    26     7     8   ar
    27     8     9   ar
    28     9    10   ar
    29    10    11    1
    30    10    12   ar
    31    12    13   ar
    32     6     1   ar
    33    13     7   ar
    34    23    18    1
    35    28    21    1
    36    24    30    1
    37    27    31    1
@<TRIPOS>MOLECULE
*****
 34 37 0 0 0
SMALL
GASTEIGER

@<TRIPOS>ATOM
      1 C         139.5042  138.8677  162.9190 C.ar    1  UNL1        0.1411
      2 C         139.4951  138.6203  164.3985 C.ar    1  UNL1        0.0342
      3 C         138.7571  139.5549  165.3106 C.ar    1  UNL1       -0.0001
      4 C         138.0282  140.7368  164.7432 C.ar    1  UNL1        0.0342
      5 C         138.0373  140.9841  163.2638 C.ar    1  UNL1        0.1411
      6 C         138.7753  140.0495  162.3517 C.ar    1  UNL1        0.0679
      7 C         138.7844  140.2968  160.8723 C.ar    1  UNL1        0.0060
      8 C         137.5814  139.9494  160.0464 C.ar    1  UNL1        0.0025
      9 C         137.5906  140.1967  158.5669 C.ar    1  UNL1        0.0296
     10 C         138.8027  140.7914  157.9134 C.ar    1  UNL1        0.1401
     11 F         138.8118  141.0387  156.4340 F       1  UNL1       -0.2042
     12 C         140.0057  141.1388  158.7393 C.ar    1  UNL1        0.0296
     13 C         139.9966  140.8915  160.2187 C.ar    1  UNL1        0.0025
     14 O         140.2422  137.9331  162.0069 O.3     1  UNL1       -0.4754
     15 C         142.3986  138.0134  160.5598 C.3     1  UNL1        0.0512
     16 C         141.7370  138.0082  161.9061 C.3     1  UNL1        0.2055
     17 C         138.7480  139.3076  166.7900 C.3     1  UNL1        0.0993
     18 N         139.7229  140.0246  167.6763 N.3     1  UNL1       -0.2688
     19 C         139.3830  140.2772  169.1153 C.3     1  UNL1        0.0745
     20 C         140.3579  140.9942  170.0015 C.3     1  UNL1        0.0443
     21 C         141.6728  141.4585  169.4488 C.3     1  UNL1        0.1298
     22 C         142.0127  141.2060  168.0098 C.3     1  UNL1        0.0443
     23 C         141.0378  140.4890  167.1236 C.3     1  UNL1        0.0745
     24 N         143.0188  141.9789  169.0394 N.am    1  UNL1       -0.2838
     25 C         143.6508  142.6231  170.2377 C.2     1  UNL1        0.3068
     26 O         145.0011  143.2750  170.2788 O.2     1  UNL1       -0.2524
     27 N         142.6954  142.5008  171.3876 N.am    1  UNL1       -0.2384
     28 C         141.4729  141.7811  170.9001 C.2     1  UNL1        0.2452
     29 O         140.2630  141.4432  171.7197 O.2     1  UNL1       -0.2730
     30 H         143.4174  141.9098  168.1419 H       1  UNL1        0.1513
     31 H         142.8444  142.8343  172.3018 H       1  UNL1        0.1591
     32 O         137.3084  142.1659  162.6965 O.3     1  UNL1       -0.4754
     33 C         137.9531  143.5203  162.7066 C.3     1  UNL1        0.2055
     34 C         137.9895  144.3242  163.9724 C.3     1  UNL1        0.0512
@<TRIPOS>BOND
     1    15    16    1
     2    16    14    1
     3    14     1    1
     4     1     2   ar
     5     2     3   ar
     6     3    17    1
     7    17    18    1
     8    18    19    1
     9    19    20    1
    10    20    21    1
    11    21    22    1
    12    22    23    1
    13    21    24    1
    14    24    25   am
    15    25    26    2
    16    25    27   am
    17    27    28   am
    18    28    29    2
    19     3     4   ar
    20     4     5   ar
    21     5    32    1
    22    32    33    1
    23    33    34    1
    24     5     6   ar
    25     6     7    1
    26     7     8   ar
    27     8     9   ar
    28     9    10   ar
    29    10    11    1
    30    10    12   ar
    31    12    13   ar
    32     6     1   ar
    33    13     7   ar
    34    23    18    1
    35    28    21    1
    36    24    30    1
    37    27    31    1
@<TRIPOS>MOLECULE
*****
 34 37 0 0 0
SMALL
GASTEIGER

@<TRIPOS>ATOM
      1 C         138.1224  141.1408  163.2758 C.ar    1  UNL1        0.1411
      2 C         138.1094  140.8713  164.7514 C.ar    1  UNL1        0.0342
      3 C         138.7664  139.6368  165.2941 C.ar    1  UNL1       -0.0001
      4 C         139.4364  138.6719  164.3613 C.ar    1  UNL1        0.0342
      5 C         139.4494  138.9415  162.8858 C.ar    1  UNL1        0.1411
      6 C         138.7924  140.1759  162.3431 C.ar    1  UNL1        0.0679
      7 C         138.8055  140.4454  160.8676 C.ar    1  UNL1        0.0060
      8 C         140.0099  141.0726  160.2303 C.ar    1  UNL1        0.0025
      9 C         140.0228  141.3421  158.7547 C.ar    1  UNL1        0.0296
     10 C         138.8314  140.9845  157.9165 C.ar    1  UNL1        0.1401
     11 F         138.8445  141.2541  156.4410 F       1  UNL1       -0.2042
     12 C         137.6270  140.3574  158.5538 C.ar    1  UNL1        0.0296
     13 C         137.6140  140.0879  160.0293 C.ar    1  UNL1        0.0025
     14 O         137.4655  142.3752  162.7331 O.3     1  UNL1       -0.4754
     15 C         139.1070  144.3766  162.5093 C.3     1  UNL1        0.0512
     16 C         137.9306  143.7300  163.1785 C.3     1  UNL1        0.2055
     17 C         138.7534  139.3673  166.7696 C.3     1  UNL1        0.0993
     18 N         139.7156  140.0824  167.6712 N.3     1  UNL1       -0.2688
     19 C         139.3844  140.2725  169.1218 C.3     1  UNL1        0.0745
     20 C         140.3466  140.9876  170.0233 C.3     1  UNL1        0.0443
     21 C         141.6400  141.5126  169.4743 C.3     1  UNL1        0.1298
     22 C         141.9712  141.3226  168.0237 C.3     1  UNL1        0.0443
     23 C         141.0090  140.6075  167.1222 C.3     1  UNL1        0.0745
     24 N         142.9644  142.0895  169.0702 N.am    1  UNL1       -0.2838
     25 C         143.5897  142.7099  170.2844 C.2     1  UNL1        0.3068
     26 O         144.9194  143.4021  170.3352 O.2     1  UNL1       -0.2524
     27 N         142.6517  142.5164  171.4389 N.am    1  UNL1       -0.2384
     28 C         141.4467  141.7765  170.9383 C.2     1  UNL1        0.2452
     29 O         140.2573  141.3716  171.7576 O.2     1  UNL1       -0.2730
     30 H         143.3547  142.0652  168.1667 H       1  UNL1        0.1513
     31 H         142.8007  142.8215  172.3630 H       1  UNL1        0.1591
     32 O         140.1194  137.9766  161.9531 O.3     1  UNL1       -0.4754
     33 C         141.6165  137.8948  161.9069 C.3     1  UNL1        0.2055
     34 C         142.4445  139.0933  162.2647 C.3     1  UNL1        0.0512
@<TRIPOS>BOND
     1    15    16    1
     2    16    14    1
     3    14     1    1
     4     1     2   ar
     5     2     3   ar
     6     3    17    1
     7    17    18    1
     8    18    19    1
     9    19    20    1
    10    20    21    1
    11    21    22    1
    12    22    23    1
    13    21    24    1
    14    24    25   am
    15    25    26    2
    16    25    27   am
    17    27    28   am
    18    28    29    2
    19     3     4   ar
    20     4     5   ar
    21     5    32    1
    22    32    33    1
    23    33    34    1
    24     5     6   ar
    25     6     7    1
    26     7     8   ar
    27     8     9   ar
    28     9    10   ar
    29    10    11    1
    30    10    12   ar
    31    12    13   ar
    32     6     1   ar
    33    13     7   ar
    34    23    18    1
    35    28    21    1
    36    24    30    1
    37    27    31    1
@<TRIPOS>MOLECULE
*****
 34 37 0 0 0
SMALL
GASTEIGER

@<TRIPOS>ATOM
      1 C         140.9975  141.2488  161.5434 C.ar    1  UNL1        0.1411
      2 C         141.2349  140.2232  162.6121 C.ar    1  UNL1        0.0342
      3 C         142.3761  140.3899  163.5712 C.ar    1  UNL1       -0.0001
      4 C         143.2799  141.5821  163.4616 C.ar    1  UNL1        0.0342
      5 C         143.0425  142.6075  162.3929 C.ar    1  UNL1        0.1411
      6 C         141.9013  142.4409  161.4339 C.ar    1  UNL1        0.0679
      7 C         141.6638  143.4663  160.3652 C.ar    1  UNL1        0.0060
      8 C         142.4554  143.4198  159.0920 C.ar    1  UNL1        0.0025
      9 C         142.2180  144.4454  158.0233 C.ar    1  UNL1        0.0296
     10 C         141.1889  145.5173  158.2279 C.ar    1  UNL1        0.1401
     11 F         140.9515  146.5428  157.1593 F       1  UNL1       -0.2042
     12 C         140.3973  145.5638  159.5012 C.ar    1  UNL1        0.0296
     13 C         140.6347  144.5384  160.5698 C.ar    1  UNL1        0.0025
     14 O         139.8563  141.0821  160.5843 O.3     1  UNL1       -0.4754
     15 C         138.1499  142.3082  162.1124 C.3     1  UNL1        0.0512
     16 C         138.4464  141.2884  161.0531 C.3     1  UNL1        0.2055
     17 C         142.6136  139.3644  164.6398 C.3     1  UNL1        0.0993
     18 N         142.3455  139.7024  166.0765 N.3     1  UNL1       -0.2688
     19 C         142.9500  138.8701  167.1682 C.3     1  UNL1        0.0745
     20 C         142.6818  139.2081  168.6047 C.3     1  UNL1        0.0443
     21 C         141.8092  140.3784  168.9496 C.3     1  UNL1        0.1298
     22 C         141.2047  141.2107  167.8579 C.3     1  UNL1        0.0443
     23 C         141.4728  140.8727  166.4214 C.3     1  UNL1        0.0745
     24 N         140.9616  141.5124  169.4452 N.am    1  UNL1       -0.2838
     25 C         140.9701  141.4766  170.9448 C.2     1  UNL1        0.3068
     26 O         140.2519  142.4296  171.8536 O.2     1  UNL1       -0.2524
     27 N         141.8230  140.3204  171.3760 N.am    1  UNL1       -0.2384
     28 C         142.3415  139.6417  170.1430 C.2     1  UNL1        0.2452
     29 O         143.2355  138.4377  170.1090 O.2     1  UNL1       -0.2730
     30 H         140.4836  142.1656  168.8847 H       1  UNL1        0.1513
     31 H         142.0096  140.0538  172.3052 H       1  UNL1        0.1591
     32 O         143.9463  143.7996  162.2834 O.3     1  UNL1       -0.4754
     33 C         143.7919  144.9479  163.2362 C.3     1  UNL1        0.2055
     34 C         142.4374  145.2954  163.7787 C.3     1  UNL1        0.0512
@<TRIPOS>BOND
     1    15    16    1
     2    16    14    1
     3    14     1    1
     4     1     2   ar
     5     2     3   ar
     6     3    17    1
     7    17    18    1
     8    18    19    1
     9    19    20    1
    10    20    21    1
    11    21    22    1
    12    22    23    1
    13    21    24    1
    14    24    25   am
    15    25    26    2
    16    25    27   am
    17    27    28   am
    18    28    29    2
    19     3     4   ar
    20     4     5   ar
    21     5    32    1
    22    32    33    1
    23    33    34    1
    24     5     6   ar
    25     6     7    1
    26     7     8   ar
    27     8     9   ar
    28     9    10   ar
    29    10    11    1
    30    10    12   ar
    31    12    13   ar
    32     6     1   ar
    33    13     7   ar
    34    23    18    1
    35    28    21    1
    36    24    30    1
    37    27    31    1
@<TRIPOS>MOLECULE
*****
 34 37 0 0 0
SMALL
GASTEIGER

@<TRIPOS>ATOM
      1 C         143.0094  142.8272  162.1418 C.ar    1  UNL1        0.1411
      2 C         143.1603  141.8545  163.2737 C.ar    1  UNL1        0.0342
      3 C         142.3014  140.6258  163.3262 C.ar    1  UNL1       -0.0001
      4 C         141.2918  140.3699  162.2467 C.ar    1  UNL1        0.0342
      5 C         141.1410  141.3425  161.1149 C.ar    1  UNL1        0.1411
      6 C         141.9998  142.5712  161.0624 C.ar    1  UNL1        0.0679
      7 C         141.8491  143.5439  159.9306 C.ar    1  UNL1        0.0060
      8 C         140.8780  144.6815  160.0437 C.ar    1  UNL1        0.0025
      9 C         140.7272  145.6543  158.9117 C.ar    1  UNL1        0.0296
     10 C         141.5475  145.4893  157.6668 C.ar    1  UNL1        0.1401
     11 F         141.3968  146.4620  156.5350 F       1  UNL1       -0.2042
     12 C         142.5186  144.3517  157.5538 C.ar    1  UNL1        0.0296
     13 C         142.6694  143.3790  158.6856 C.ar    1  UNL1        0.0025
     14 O         143.8683  144.0559  162.0894 O.3     1  UNL1       -0.4754
     15 C         142.4096  145.3693  163.7915 C.3     1  UNL1        0.0512
     16 C         143.7412  145.1058  163.1532 C.3     1  UNL1        0.2055
     17 C         142.4522  139.6531  164.4580 C.3     1  UNL1        0.0993
     18 N         141.8653  139.9692  165.8018 N.3     1  UNL1       -0.2688
     19 C         140.5066  139.4496  166.1678 C.3     1  UNL1        0.0745
     20 C         139.9198  139.7657  167.5115 C.3     1  UNL1        0.0443
     21 C         140.6915  140.6013  168.4893 C.3     1  UNL1        0.1298
     22 C         142.0502  141.1209  168.1233 C.3     1  UNL1        0.0443
     23 C         142.6371  140.8049  166.7795 C.3     1  UNL1        0.0745
     24 N         141.3417  141.4202  169.5648 N.am    1  UNL1       -0.2838
     25 C         140.4034  141.4790  170.7338 C.2     1  UNL1        0.3068
     26 O         140.6516  142.1946  172.0285 O.2     1  UNL1       -0.2524
     27 N         139.1733  140.6965  170.3805 N.am    1  UNL1       -0.2384
     28 C         139.3514  140.1541  168.9934 C.2     1  UNL1        0.2452
     29 O         138.3630  139.3122  168.2423 O.2     1  UNL1       -0.2730
     30 H         142.2285  141.8445  169.5128 H       1  UNL1        0.1513
     31 H         138.3872  140.5624  170.9578 H       1  UNL1        0.1591
     32 O         140.1314  141.0865  160.0355 O.3     1  UNL1       -0.4754
     33 C         138.7502  141.6605  160.1490 C.3     1  UNL1        0.2055
     34 C         138.2825  142.2373  161.4523 C.3     1  UNL1        0.0512
@<TRIPOS>BOND
     1    15    16    1
     2    16    14    1
     3    14     1    1
     4     1     2   ar
     5     2     3   ar
     6     3    17    1
     7    17    18    1
     8    18    19    1
     9    19    20    1
    10    20    21    1
    11    21    22    1
    12    22    23    1
    13    21    24    1
    14    24    25   am
    15    25    26    2
    16    25    27   am
    17    27    28   am
    18    28    29    2
    19     3     4   ar
    20     4     5   ar
    21     5    32    1
    22    32    33    1
    23    33    34    1
    24     5     6   ar
    25     6     7    1
    26     7     8   ar
    27     8     9   ar
    28     9    10   ar
    29    10    11    1
    30    10    12   ar
    31    12    13   ar
    32     6     1   ar
    33    13     7   ar
    34    23    18    1
    35    28    21    1
    36    24    30    1
    37    27    31    1
@<TRIPOS>MOLECULE
*****
 34 37 0 0 0
SMALL
GASTEIGER

@<TRIPOS>ATOM
      1 C         141.1802  140.6456  163.7304 C.ar    1  UNL1        0.1411
      2 C         141.2086  140.7612  162.2350 C.ar    1  UNL1        0.0342
      3 C         140.1160  141.4985  161.5190 C.ar    1  UNL1       -0.0001
      4 C         138.9951  142.1201  162.2982 C.ar    1  UNL1        0.0342
      5 C         138.9667  142.0045  163.7934 C.ar    1  UNL1        0.1411
      6 C         140.0593  141.2673  164.5095 C.ar    1  UNL1        0.0679
      7 C         140.0309  141.1516  166.0047 C.ar    1  UNL1        0.0060
      8 C         139.3288  139.9963  166.6545 C.ar    1  UNL1        0.0025
      9 C         139.3004  139.8807  168.1498 C.ar    1  UNL1        0.0296
     10 C         139.9743  140.9204  168.9953 C.ar    1  UNL1        0.1401
     11 F         139.9459  140.8048  170.4905 F       1  UNL1       -0.2042
     12 C         140.6764  142.0757  168.3456 C.ar    1  UNL1        0.0296
     13 C         140.7048  142.1914  166.8503 C.ar    1  UNL1        0.0025
     14 O         142.2727  139.9083  164.4465 O.3     1  UNL1       -0.4754
     15 C         141.0752  137.6027  164.4387 C.3     1  UNL1        0.0512
     16 C         142.3371  138.4113  164.3778 C.3     1  UNL1        0.2055
     17 C         140.1444  141.6141  160.0237 C.3     1  UNL1        0.0993
     18 N         141.4555  141.5995  159.2950 N.3     1  UNL1       -0.2688
     19 C         141.8872  140.3699  158.5524 C.3     1  UNL1        0.0745
     20 C         143.1982  140.3553  157.8238 C.3     1  UNL1        0.0443
     21 C         144.0775  141.5705  157.8378 C.3     1  UNL1        0.1298
     22 C         143.6459  142.8001  158.5804 C.3     1  UNL1        0.0443
     23 C         142.3348  142.8147  159.3090 C.3     1  UNL1        0.0745
     24 N         145.0573  142.7039  157.7629 N.am    1  UNL1       -0.2838
     25 C         146.2244  142.2538  156.9349 C.2     1  UNL1        0.3068
     26 O         147.4369  143.0717  156.6022 O.2     1  UNL1       -0.2524
     27 N         145.9659  140.8423  156.4981 N.am    1  UNL1       -0.2384
     28 C         144.6391  140.4199  157.0560 C.2     1  UNL1        0.2452
     29 O         143.9881  139.0821  156.8658 O.2     1  UNL1       -0.2730
     30 H         144.9527  143.5879  158.1834 H       1  UNL1        0.1513
     31 H         146.5623  140.2900  155.9426 H       1  UNL1        0.1591
     32 O         137.8458  142.6262  164.5726 O.3     1  UNL1       -0.4754
     33 C         137.7163  144.1191  164.6389 C.3     1  UNL1        0.2055
     34 C         138.6971  144.9222  165.4408 C.3     1  UNL1        0.0512
@<TRIPOS>BOND
     1    15    16    1
     2    16    14    1
     3    14     1    1
     4     1     2   ar
     5     2     3   ar
     6     3    17    1
     7    17    18    1
     8    18    19    1
     9    19    20    1
    10    20    21    1
    11    21    22    1
    12    22    23    1
    13    21    24    1
    14    24    25   am
    15    25    26    2
    16    25    27   am
    17    27    28   am
    18    28    29    2
    19     3     4   ar
    20     4     5   ar
    21     5    32    1
    22    32    33    1
    23    33    34    1
    24     5     6   ar
    25     6     7    1
    26     7     8   ar
    27     8     9   ar
    28     9    10   ar
    29    10    11    1
    30    10    12   ar
    31    12    13   ar
    32     6     1   ar
    33    13     7   ar
    34    23    18    1
    35    28    21    1
    36    24    30    1
    37    27    31    1
@<TRIPOS>MOLECULE
*****
 34 37 0 0 0
SMALL
GASTEIGER

@<TRIPOS>ATOM
      1 C         142.1703  139.4864  166.7360 C.ar    1  UNL1        0.1411
      2 C         142.5903  138.6776  165.5445 C.ar    1  UNL1        0.0342
      3 C         141.6818  138.5652  164.3563 C.ar    1  UNL1       -0.0001
      4 C         140.3532  139.2616  164.3595 C.ar    1  UNL1        0.0342
      5 C         139.9332  140.0703  165.5509 C.ar    1  UNL1        0.1411
      6 C         140.8418  140.1828  166.7392 C.ar    1  UNL1        0.0679
      7 C         140.4218  140.9915  167.9306 C.ar    1  UNL1        0.0060
      8 C         139.5113  140.3920  168.9609 C.ar    1  UNL1        0.0025
      9 C         139.0914  141.2008  170.1523 C.ar    1  UNL1        0.0296
     10 C         139.5819  142.6092  170.3134 C.ar    1  UNL1        0.1401
     11 F         139.1620  143.4179  171.5048 F       1  UNL1       -0.2042
     12 C         140.4924  143.2087  169.2831 C.ar    1  UNL1        0.0296
     13 C         140.9124  142.3999  168.0917 C.ar    1  UNL1        0.0025
     14 O         143.0789  139.5988  167.9242 O.3     1  UNL1       -0.4754
     15 C         142.8518  139.7869  170.5055 C.3     1  UNL1        0.0512
     16 C         142.6709  139.0035  169.2392 C.3     1  UNL1        0.2055
     17 C         142.1017  137.7564  163.1649 C.3     1  UNL1        0.0993
     18 N         142.5769  138.4457  161.9202 N.3     1  UNL1       -0.2688
     19 C         143.1051  139.8476  161.9943 C.3     1  UNL1        0.0745
     20 C         143.5802  140.5368  160.7496 C.3     1  UNL1        0.0443
     21 C         143.5270  139.8240  159.4309 C.3     1  UNL1        0.1298
     22 C         142.9988  138.4221  159.3567 C.3     1  UNL1        0.0443
     23 C         142.5237  137.7329  160.6014 C.3     1  UNL1        0.0745
     24 N         143.5348  139.2414  158.0486 N.am    1  UNL1       -0.2838
     25 C         144.0904  140.2742  157.1133 C.2     1  UNL1        0.3068
     26 O         144.2774  140.1141  155.6337 O.2     1  UNL1       -0.2524
     27 N         144.4260  141.4951  157.9175 N.am    1  UNL1       -0.2384
     28 C         144.0779  141.2169  159.3498 C.2     1  UNL1        0.2452
     29 O         144.2503  142.1651  160.4992 O.2     1  UNL1       -0.2730
     30 H         143.2289  138.3395  157.7991 H       1  UNL1        0.1513
     31 H         144.8078  142.3321  157.5669 H       1  UNL1        0.1591
     32 O         138.6047  140.7667  165.5541 O.3     1  UNL1       -0.4754
     33 C         138.3831  141.9635  164.6774 C.3     1  UNL1        0.2055
     34 C         139.2057  143.2019  164.8767 C.3     1  UNL1        0.0512
@<TRIPOS>BOND
     1    15    16    1
     2    16    14    1
     3    14     1    1
     4     1     2   ar
     5     2     3   ar
     6     3    17    1
     7    17    18    1
     8    18    19    1
     9    19    20    1
    10    20    21    1
    11    21    22    1
    12    22    23    1
    13    21    24    1
    14    24    25   am
    15    25    26    2
    16    25    27   am
    17    27    28   am
    18    28    29    2
    19     3     4   ar
    20     4     5   ar
    21     5    32    1
    22    32    33    1
    23    33    34    1
    24     5     6   ar
    25     6     7    1
    26     7     8   ar
    27     8     9   ar
    28     9    10   ar
    29    10    11    1
    30    10    12   ar
    31    12    13   ar
    32     6     1   ar
    33    13     7   ar
    34    23    18    1
    35    28    21    1
    36    24    30    1
    37    27    31    1
@<TRIPOS>MOLECULE
*****
 34 37 0 0 0
SMALL
GASTEIGER

@<TRIPOS>ATOM
      1 C         142.0152  139.2687  166.6624 C.ar    1  UNL1        0.1411
      2 C         142.3539  138.3757  165.5057 C.ar    1  UNL1        0.0342
      3 C         141.3686  138.1866  164.3906 C.ar    1  UNL1       -0.0001
      4 C         140.0446  138.8906  164.4322 C.ar    1  UNL1        0.0342
      5 C         139.7060  139.7835  165.5889 C.ar    1  UNL1        0.1411
      6 C         140.6913  139.9726  166.7040 C.ar    1  UNL1        0.0679
      7 C         140.3528  140.8656  167.8606 C.ar    1  UNL1        0.0060
      8 C         140.8692  142.2734  167.8976 C.ar    1  UNL1        0.0025
      9 C         140.5306  143.1663  169.0543 C.ar    1  UNL1        0.0296
     10 C         139.6756  142.6515  170.1741 C.ar    1  UNL1        0.1401
     11 F         139.3370  143.5445  171.3307 F       1  UNL1       -0.2042
     12 C         139.1591  141.2437  170.1371 C.ar    1  UNL1        0.0296
     13 C         139.4977  140.3507  168.9805 C.ar    1  UNL1        0.0025
     14 O         143.0005  139.4577  167.7775 O.3     1  UNL1       -0.4754
     15 C         142.8256  139.7562  170.3525 C.3     1  UNL1        0.0512
     16 C         142.7155  138.8868  169.1350 C.3     1  UNL1        0.2055
     17 C         141.7071  137.2937  163.2339 C.3     1  UNL1        0.0993
     18 N         141.3622  137.7139  161.8359 N.3     1  UNL1       -0.2688
     19 C         142.4467  137.8767  160.8125 C.3     1  UNL1        0.0745
     20 C         142.1017  138.2969  159.4145 C.3     1  UNL1        0.0443
     21 C         140.6722  138.5544  159.0399 C.3     1  UNL1        0.1298
     22 C         139.5877  138.3916  160.0633 C.3     1  UNL1        0.0443
     23 C         139.9327  137.9714  161.4613 C.3     1  UNL1        0.0745
     24 N         139.2952  138.8456  158.5212 N.am    1  UNL1       -0.2838
     25 C         139.4156  139.2284  157.0758 C.2     1  UNL1        0.3068
     26 O         138.2834  139.6005  156.1650 O.2     1  UNL1       -0.2524
     27 N         140.8671  139.1737  156.7013 N.am    1  UNL1       -0.2384
     28 C         141.6437  138.7572  157.9151 C.2     1  UNL1        0.2452
     29 O         143.1307  138.5753  157.9909 O.2     1  UNL1       -0.2730
     30 H         138.4592  138.7945  159.0386 H       1  UNL1        0.1513
     31 H         141.2439  139.3758  155.8144 H       1  UNL1        0.1591
     32 O         138.3821  140.4875  165.6305 O.3     1  UNL1       -0.4754
     33 C         138.1108  141.6305  164.6977 C.3     1  UNL1        0.2055
     34 C         137.4749  141.3750  163.3635 C.3     1  UNL1        0.0512
@<TRIPOS>BOND
     1    15    16    1
     2    16    14    1
     3    14     1    1
     4     1     2   ar
     5     2     3   ar
     6     3    17    1
     7    17    18    1
     8    18    19    1
     9    19    20    1
    10    20    21    1
    11    21    22    1
    12    22    23    1
    13    21    24    1
    14    24    25   am
    15    25    26    2
    16    25    27   am
    17    27    28   am
    18    28    29    2
    19     3     4   ar
    20     4     5   ar
    21     5    32    1
    22    32    33    1
    23    33    34    1
    24     5     6   ar
    25     6     7    1
    26     7     8   ar
    27     8     9   ar
    28     9    10   ar
    29    10    11    1
    30    10    12   ar
    31    12    13   ar
    32     6     1   ar
    33    13     7   ar
    34    23    18    1
    35    28    21    1
    36    24    30    1
    37    27    31    1
