@<TRIPOS>MOLECULE
*****
 30 34 0 0 0
SMALL
GASTEIGER

@<TRIPOS>ATOM
      1 C         138.4594  138.2918  163.0454 C.ar    1  UNL1       -0.0206
      2 C         138.8541  137.2110  164.0076 C.ar    1  UNL1       -0.0011
      3 C         138.8369  137.4779  165.4837 C.ar    1  UNL1        0.0373
      4 C         138.4251  138.8257  165.9973 C.ar    1  UNL1        0.1477
      5 C         138.0304  139.9066  165.0349 C.ar    1  UNL1        0.0373
      6 C         138.0476  139.6396  163.5590 C.ar    1  UNL1       -0.0011
      7 C         138.4766  138.0249  161.5694 C.3     1  UNL1        0.0437
      8 C         139.4728  138.7237  160.6924 C.3     1  UNL1        0.0768
      9 C         141.7074  142.3099  162.2403 C.3     1  UNL1        0.0781
     10 C         142.2358  140.9294  162.4953 C.3     1  UNL1        0.0372
     11 C         141.4909  139.7340  161.9794 C.3     1  UNL1        0.0738
     12 N         140.2177  139.9191  161.2083 N.3     1  UNL1       -0.2723
     13 C         139.6893  141.2996  160.9532 C.3     1  UNL1        0.0738
     14 C         140.4341  142.4950  161.4692 C.3     1  UNL1        0.0372
     15 O         144.7607  143.1530  161.4554 O.2     1  UNL1       -0.2749
     16 C         143.8558  143.8928  162.3954 C.2     1  UNL1        0.2256
     17 C         144.1954  145.1500  163.1398 C.3     1  UNL1        0.0870
     18 C         143.0019  145.5395  163.9607 C.3     1  UNL1        0.0311
     19 C         141.9245  144.5229  163.7236 C.3     1  UNL1        0.0938
     20 N         142.4523  143.5052  162.7562 N.am    1  UNL1       -0.2811
     21 O         138.4079  139.0927  167.4732 O.3     1  UNL1       -0.4313
     22 C         139.4925  139.9187  168.0987 C.ar    1  UNL1        0.2628
     23 N         139.3935  140.6695  169.3935 N.ar    1  UNL1       -0.2050
     24 C         140.7064  141.3538  169.6342 C.ar    1  UNL1        0.0910
     25 C         141.1904  142.2331  170.7488 C.ar    1  UNL1        0.0197
     26 C         142.5850  142.7845  170.7175 C.ar    1  UNL1        0.0016
     27 C         143.4956  142.4566  169.5714 C.ar    1  UNL1        0.0006
     28 C         143.0115  141.5773  168.4568 C.ar    1  UNL1        0.0081
     29 C         141.6170  141.0259  168.4881 C.ar    1  UNL1        0.0515
     30 S         140.8667  140.1390  167.5392 S.2     1  UNL1       -0.0283
@<TRIPOS>BOND
     1    15    16    2
     2    16    17    1
     3    17    18    1
     4    18    19    1
     5    19    20    1
     6    20     9    1
     7     9    10    1
     8    10    11    1
     9    11    12    1
    10    12     8    1
    11     8     7    1
    12     7     1    1
    13     1     2   ar
    14     2     3   ar
    15     3     4   ar
    16     4    21    1
    17    21    22    1
    18    22    23   ar
    19    23    24   ar
    20    24    25   ar
    21    25    26   ar
    22    26    27   ar
    23    27    28   ar
    24    28    29   ar
    25    29    30   ar
    26     4     5   ar
    27     5     6   ar
    28    12    13    1
    29    13    14    1
    30    20    16   am
    31    14     9    1
    32     6     1   ar
    33    30    22   ar
    34    29    24   ar
@<TRIPOS>MOLECULE
*****
 30 34 0 0 0
SMALL
GASTEIGER

@<TRIPOS>ATOM
      1 C         138.3433  138.8239  162.9228 C.ar    1  UNL1       -0.0206
      2 C         137.9984  140.1025  163.6273 C.ar    1  UNL1       -0.0011
      3 C         138.0815  140.1807  165.1230 C.ar    1  UNL1        0.0373
      4 C         138.5094  138.9804  165.9141 C.ar    1  UNL1        0.1477
      5 C         138.8543  137.7017  165.2096 C.ar    1  UNL1        0.0373
      6 C         138.7712  137.6235  163.7140 C.ar    1  UNL1       -0.0011
      7 C         138.2602  138.7457  161.4271 C.3     1  UNL1        0.0437
      8 C         137.4853  139.7786  160.6639 C.3     1  UNL1        0.0768
      9 C         139.6442  143.1634  158.6311 C.3     1  UNL1        0.0781
     10 C         139.0704  142.0427  157.8158 C.3     1  UNL1        0.0372
     11 C         138.3507  140.9144  158.4934 C.3     1  UNL1        0.0738
     12 N         138.2049  140.9069  159.9863 N.3     1  UNL1       -0.2723
     13 C         138.7788  142.0276  160.8016 C.3     1  UNL1        0.0738
     14 C         139.4984  143.1559  160.1240 C.3     1  UNL1        0.0372
     15 O         142.5808  144.3301  159.4464 O.2     1  UNL1       -0.2749
     16 C         141.7137  144.8279  158.3282 C.2     1  UNL1        0.2256
     17 C         142.0441  145.9494  157.3885 C.3     1  UNL1        0.0870
     18 C         140.8985  146.1063  156.4329 C.3     1  UNL1        0.0311
     19 C         139.8601  145.0816  156.7821 C.3     1  UNL1        0.0938
     20 N         140.3638  144.2916  157.9535 N.am    1  UNL1       -0.2811
     21 O         138.5925  139.0585  167.4098 O.3     1  UNL1       -0.4313
     22 C         139.6490  139.9024  168.0591 C.ar    1  UNL1        0.2628
     23 N         140.9904  140.2378  167.4776 N.ar    1  UNL1       -0.2050
     24 C         141.7201  141.1017  168.4631 C.ar    1  UNL1        0.0910
     25 C         143.0803  141.7332  168.4301 C.ar    1  UNL1        0.0197
     26 C         143.5500  142.5632  169.5878 C.ar    1  UNL1        0.0016
     27 C         142.6596  142.7617  170.7786 C.ar    1  UNL1        0.0006
     28 C         141.2995  142.1302  170.8115 C.ar    1  UNL1        0.0081
     29 C         140.8297  141.3002  169.6538 C.ar    1  UNL1        0.0515
     30 S         139.5497  140.5590  169.4041 S.2     1  UNL1       -0.0283
@<TRIPOS>BOND
     1    15    16    2
     2    16    17    1
     3    17    18    1
     4    18    19    1
     5    19    20    1
     6    20     9    1
     7     9    10    1
     8    10    11    1
     9    11    12    1
    10    12     8    1
    11     8     7    1
    12     7     1    1
    13     1     2   ar
    14     2     3   ar
    15     3     4   ar
    16     4    21    1
    17    21    22    1
    18    22    23   ar
    19    23    24   ar
    20    24    25   ar
    21    25    26   ar
    22    26    27   ar
    23    27    28   ar
    24    28    29   ar
    25    29    30   ar
    26     4     5   ar
    27     5     6   ar
    28    12    13    1
    29    13    14    1
    30    20    16   am
    31    14     9    1
    32     6     1   ar
    33    30    22   ar
    34    29    24   ar
@<TRIPOS>MOLECULE
*****
 30 34 0 0 0
SMALL
GASTEIGER

@<TRIPOS>ATOM
      1 C         139.7835  138.3672  161.0839 C.ar    1  UNL1       -0.0206
      2 C         140.6598  137.6595  162.0745 C.ar    1  UNL1       -0.0011
      3 C         140.2365  137.5546  163.5097 C.ar    1  UNL1        0.0373
      4 C         138.9368  138.1574  163.9543 C.ar    1  UNL1        0.1477
      5 C         138.0606  138.8651  162.9636 C.ar    1  UNL1        0.0373
      6 C         138.4839  138.9700  161.5285 C.ar    1  UNL1       -0.0011
      7 C         140.2069  138.4721  159.6487 C.3     1  UNL1        0.0437
      8 C         141.1217  139.5791  159.2156 C.3     1  UNL1        0.0768
      9 C         142.8292  142.4108  162.2678 C.3     1  UNL1        0.0781
     10 C         143.6417  141.2440  161.7900 C.3     1  UNL1        0.0372
     11 C         143.0725  140.3000  160.7726 C.3     1  UNL1        0.0738
     12 N         141.6908  140.5230  160.2329 N.3     1  UNL1       -0.2723
     13 C         140.8783  141.6899  160.7107 C.3     1  UNL1        0.0738
     14 C         141.4475  142.6337  161.7281 C.3     1  UNL1        0.0372
     15 O         144.1185  141.5775  165.1474 O.2     1  UNL1       -0.2749
     16 C         143.9910  142.9716  164.6089 C.2     1  UNL1        0.2256
     17 C         144.4338  144.2275  165.2993 C.3     1  UNL1        0.0870
     18 C         144.1148  145.3868  164.4024 C.3     1  UNL1        0.0311
     19 C         143.4748  144.8473  163.1575 C.3     1  UNL1        0.0938
     20 N         143.3984  143.3546  163.2851 N.am    1  UNL1       -0.2811
     21 O         138.5135  138.0525  165.3895 O.3     1  UNL1       -0.4313
     22 C         138.9350  139.1024  166.3744 C.ar    1  UNL1        0.2628
     23 N         138.6557  139.0917  167.8481 N.ar    1  UNL1       -0.2050
     24 C         139.2578  140.3300  168.4431 C.ar    1  UNL1        0.0910
     25 C         139.2970  140.8511  169.8491 C.ar    1  UNL1        0.0197
     26 C         139.9878  142.1484  170.1490 C.ar    1  UNL1        0.0016
     27 C         140.6392  142.9245  169.0430 C.ar    1  UNL1        0.0006
     28 C         140.6000  142.4033  167.6371 C.ar    1  UNL1        0.0081
     29 C         139.9093  141.1061  167.3371 C.ar    1  UNL1        0.0515
     30 S         139.7097  140.3474  166.0586 S.2     1  UNL1       -0.0283
@<TRIPOS>BOND
     1    15    16    2
     2    16    17    1
     3    17    18    1
     4    18    19    1
     5    19    20    1
     6    20     9    1
     7     9    10    1
     8    10    11    1
     9    11    12    1
    10    12     8    1
    11     8     7    1
    12     7     1    1
    13     1     2   ar
    14     2     3   ar
    15     3     4   ar
    16     4    21    1
    17    21    22    1
    18    22    23   ar
    19    23    24   ar
    20    24    25   ar
    21    25    26   ar
    22    26    27   ar
    23    27    28   ar
    24    28    29   ar
    25    29    30   ar
    26     4     5   ar
    27     5     6   ar
    28    12    13    1
    29    13    14    1
    30    20    16   am
    31    14     9    1
    32     6     1   ar
    33    30    22   ar
    34    29    24   ar
@<TRIPOS>MOLECULE
*****
 30 34 0 0 0
SMALL
GASTEIGER

@<TRIPOS>ATOM
      1 C         138.3880  143.1148  162.2911 C.ar    1  UNL1       -0.0206
      2 C         138.6799  144.5289  162.6975 C.ar    1  UNL1       -0.0011
      3 C         139.7008  145.3300  161.9449 C.ar    1  UNL1        0.0373
      4 C         140.4296  144.7170  160.7861 C.ar    1  UNL1        0.1477
      5 C         140.1377  143.3028  160.3797 C.ar    1  UNL1        0.0373
      6 C         139.1169  142.5018  161.1322 C.ar    1  UNL1       -0.0011
      7 C         137.3672  142.3137  163.0436 C.3     1  UNL1        0.0437
      8 C         137.7182  140.9516  163.5646 C.3     1  UNL1        0.0768
      9 C         139.9531  140.5353  167.4482 C.3     1  UNL1        0.0781
     10 C         140.1801  141.7351  166.5771 C.3     1  UNL1        0.0372
     11 C         139.4351  141.8739  165.2825 C.3     1  UNL1        0.0738
     12 N         138.4631  140.8128  164.8591 N.3     1  UNL1       -0.2723
     13 C         138.2361  139.6130  165.7302 C.3     1  UNL1        0.0738
     14 C         138.9811  139.4742  167.0247 C.3     1  UNL1        0.0372
     15 O         138.8137  141.3014  170.4086 O.2     1  UNL1       -0.2749
     16 C         140.1743  140.7487  170.1035 C.2     1  UNL1        0.2256
     17 C         141.2501  140.4511  171.1055 C.3     1  UNL1        0.0870
     18 C         142.4388  139.9150  170.3640 C.3     1  UNL1        0.0311
     19 C         142.0975  139.8813  168.9037 C.3     1  UNL1        0.0938
     20 N         140.6980  140.3965  168.7426 N.am    1  UNL1       -0.2811
     21 O         141.4504  145.5180  160.0336 O.3     1  UNL1       -0.4313
     22 C         141.4371  145.5304  158.5337 C.ar    1  UNL1        0.2628
     23 N         142.5343  145.0365  157.6381 N.ar    1  UNL1       -0.2050
     24 C         142.0996  145.2397  156.2169 C.ar    1  UNL1        0.0910
     25 C         142.7710  144.9407  154.9094 C.ar    1  UNL1        0.0197
     26 C         142.0765  145.2612  153.6191 C.ar    1  UNL1        0.0016
     27 C         140.7106  145.8807  153.6364 C.ar    1  UNL1        0.0006
     28 C         140.0391  146.1797  154.9439 C.ar    1  UNL1        0.0081
     29 C         140.7336  145.8592  156.2342 C.ar    1  UNL1        0.0515
     30 S         140.3242  146.0389  157.6660 S.2     1  UNL1       -0.0283
@<TRIPOS>BOND
     1    15    16    2
     2    16    17    1
     3    17    18    1
     4    18    19    1
     5    19    20    1
     6    20     9    1
     7     9    10    1
     8    10    11    1
     9    11    12    1
    10    12     8    1
    11     8     7    1
    12     7     1    1
    13     1     2   ar
    14     2     3   ar
    15     3     4   ar
    16     4    21    1
    17    21    22    1
    18    22    23   ar
    19    23    24   ar
    20    24    25   ar
    21    25    26   ar
    22    26    27   ar
    23    27    28   ar
    24    28    29   ar
    25    29    30   ar
    26     4     5   ar
    27     5     6   ar
    28    12    13    1
    29    13    14    1
    30    20    16   am
    31    14     9    1
    32     6     1   ar
    33    30    22   ar
    34    29    24   ar
@<TRIPOS>MOLECULE
*****
 30 34 0 0 0
SMALL
GASTEIGER

@<TRIPOS>ATOM
      1 C         142.6353  141.2395  157.0578 C.ar    1  UNL1       -0.0206
      2 C         141.3476  141.9957  156.9174 C.ar    1  UNL1       -0.0011
      3 C         141.0898  143.2027  157.7699 C.ar    1  UNL1        0.0373
      4 C         142.1198  143.6534  158.7629 C.ar    1  UNL1        0.1477
      5 C         143.4076  142.8971  158.9033 C.ar    1  UNL1        0.0373
      6 C         143.6653  141.6902  158.0508 C.ar    1  UNL1       -0.0011
      7 C         142.8931  140.0325  156.2053 C.3     1  UNL1        0.0437
      8 C         142.4285  138.6805  156.6593 C.3     1  UNL1        0.0768
      9 C         140.9164  138.1145  160.8597 C.3     1  UNL1        0.0781
     10 C         142.3768  137.9499  160.5598 C.3     1  UNL1        0.0372
     11 C         142.8809  138.1386  159.1596 C.3     1  UNL1        0.0738
     12 N         141.9245  138.4918  158.0594 N.3     1  UNL1       -0.2723
     13 C         140.4640  138.6564  158.3594 C.3     1  UNL1        0.0738
     14 C         139.9599  138.4677  159.7595 C.3     1  UNL1        0.0372
     15 O         137.8055  138.3242  161.8230 O.2     1  UNL1       -0.2749
     16 C         138.9824  138.0222  162.7026 C.2     1  UNL1        0.2256
     17 C         138.9360  137.7636  164.1794 C.3     1  UNL1        0.0870
     18 C         140.3373  137.5074  164.6494 C.3     1  UNL1        0.0311
     19 C         141.2497  137.6077  163.4630 C.3     1  UNL1        0.0938
     20 N         140.4123  137.9259  162.2598 N.am    1  UNL1       -0.2811
     21 O         141.8620  144.8604  159.6154 O.3     1  UNL1       -0.4313
     22 C         141.0392  144.7353  160.8633 C.ar    1  UNL1        0.2628
     23 N         139.5561  144.5194  160.9236 N.ar    1  UNL1       -0.2050
     24 C         139.1552  144.4548  162.3676 C.ar    1  UNL1        0.0910
     25 C         137.8249  144.2585  163.0322 C.ar    1  UNL1        0.0197
     26 C         137.7301  144.2382  164.5290 C.ar    1  UNL1        0.0016
     27 C         138.9656  144.4142  165.3612 C.ar    1  UNL1        0.0006
     28 C         140.2959  144.6105  164.6967 C.ar    1  UNL1        0.0081
     29 C         140.3907  144.6308  163.1998 C.ar    1  UNL1        0.0515
     30 S         141.5550  144.8042  162.2701 S.2     1  UNL1       -0.0283
@<TRIPOS>BOND
     1    15    16    2
     2    16    17    1
     3    17    18    1
     4    18    19    1
     5    19    20    1
     6    20     9    1
     7     9    10    1
     8    10    11    1
     9    11    12    1
    10    12     8    1
    11     8     7    1
    12     7     1    1
    13     1     2   ar
    14     2     3   ar
    15     3     4   ar
    16     4    21    1
    17    21    22    1
    18    22    23   ar
    19    23    24   ar
    20    24    25   ar
    21    25    26   ar
    22    26    27   ar
    23    27    28   ar
    24    28    29   ar
    25    29    30   ar
    26     4     5   ar
    27     5     6   ar
    28    12    13    1
    29    13    14    1
    30    20    16   am
    31    14     9    1
    32     6     1   ar
    33    30    22   ar
    34    29    24   ar
@<TRIPOS>MOLECULE
*****
 30 34 0 0 0
SMALL
GASTEIGER

@<TRIPOS>ATOM
      1 C         140.4276  138.2791  160.8586 C.ar    1  UNL1       -0.0206
      2 C         141.8543  137.8842  161.1001 C.ar    1  UNL1       -0.0011
      3 C         142.7917  137.7135  159.9415 C.ar    1  UNL1        0.0373
      4 C         142.3022  137.9377  158.5414 C.ar    1  UNL1        0.1477
      5 C         140.8754  138.3327  158.3000 C.ar    1  UNL1        0.0373
      6 C         139.9381  138.5033  159.4585 C.ar    1  UNL1       -0.0011
      7 C         139.4902  138.4498  162.0172 C.3     1  UNL1        0.0437
      8 C         139.8362  137.8648  163.3543 C.3     1  UNL1        0.0768
      9 C         140.0193  140.5117  166.9889 C.3     1  UNL1        0.0781
     10 C         138.7162  140.3077  166.2745 C.3     1  UNL1        0.0372
     11 C         138.6552  139.4254  165.0630 C.3     1  UNL1        0.0738
     12 N         139.8972  138.7471  164.5658 N.3     1  UNL1       -0.2723
     13 C         141.2004  138.9511  165.2802 C.3     1  UNL1        0.0738
     14 C         141.2614  139.8334  166.4917 C.3     1  UNL1        0.0372
     15 O         138.8849  139.7737  169.9583 O.2     1  UNL1       -0.2749
     16 C         139.5589  141.0548  169.5653 C.2     1  UNL1        0.2256
     17 C         139.8298  142.2216  170.4682 C.3     1  UNL1        0.0870
     18 C         140.5187  143.2820  169.6613 C.3     1  UNL1        0.0311
     19 C         140.6735  142.7705  168.2597 C.3     1  UNL1        0.0938
     20 N         140.0804  141.3940  168.2003 N.am    1  UNL1       -0.2811
     21 O         143.2395  137.7671  157.3828 O.3     1  UNL1       -0.4313
     22 C         143.0408  136.6362  156.4176 C.ar    1  UNL1        0.2628
     23 N         143.4246  135.2043  156.6460 N.ar    1  UNL1       -0.2050
     24 C         143.0444  134.4218  155.4241 C.ar    1  UNL1        0.0910
     25 C         143.1817  132.9683  155.0800 C.ar    1  UNL1        0.0197
     26 C         142.7002  132.4632  153.7523 C.ar    1  UNL1        0.0016
     27 C         142.0813  133.4116  152.7686 C.ar    1  UNL1        0.0006
     28 C         141.9440  134.8651  153.1127 C.ar    1  UNL1        0.0081
     29 C         142.4255  135.3702  154.4404 C.ar    1  UNL1        0.0515
     30 S         142.4233  136.7388  155.0545 S.2     1  UNL1       -0.0283
@<TRIPOS>BOND
     1    15    16    2
     2    16    17    1
     3    17    18    1
     4    18    19    1
     5    19    20    1
     6    20     9    1
     7     9    10    1
     8    10    11    1
     9    11    12    1
    10    12     8    1
    11     8     7    1
    12     7     1    1
    13     1     2   ar
    14     2     3   ar
    15     3     4   ar
    16     4    21    1
    17    21    22    1
    18    22    23   ar
    19    23    24   ar
    20    24    25   ar
    21    25    26   ar
    22    26    27   ar
    23    27    28   ar
    24    28    29   ar
    25    29    30   ar
    26     4     5   ar
    27     5     6   ar
    28    12    13    1
    29    13    14    1
    30    20    16   am
    31    14     9    1
    32     6     1   ar
    33    30    22   ar
    34    29    24   ar
@<TRIPOS>MOLECULE
*****
 30 34 0 0 0
SMALL
GASTEIGER

@<TRIPOS>ATOM
      1 C         138.5296  140.8160  165.2524 C.ar    1  UNL1       -0.0206
      2 C         139.6797  141.6570  165.7213 C.ar    1  UNL1       -0.0011
      3 C         139.9537  142.9816  165.0727 C.ar    1  UNL1        0.0373
      4 C         139.0776  143.4650  163.9553 C.ar    1  UNL1        0.1477
      5 C         137.9274  142.6239  163.4864 C.ar    1  UNL1        0.0373
      6 C         137.6535  141.2994  164.1349 C.ar    1  UNL1       -0.0011
      7 C         138.2556  139.4914  165.9009 C.3     1  UNL1        0.0437
      8 C         138.7816  138.2303  165.2823 C.3     1  UNL1        0.0768
      9 C         140.6440  138.3401  161.1872 C.3     1  UNL1        0.0781
     10 C         139.2015  137.9605  161.3451 C.3     1  UNL1        0.0372
     11 C         138.5806  137.9239  162.7102 C.3     1  UNL1        0.0738
     12 N         139.4024  138.2669  163.9173 N.3     1  UNL1       -0.2723
     13 C         140.8450  138.6465  163.7593 C.3     1  UNL1        0.0738
     14 C         141.4657  138.6831  162.3943 C.3     1  UNL1        0.0372
     15 O         139.2996  139.6181  158.5023 O.2     1  UNL1       -0.2749
     16 C         140.6468  138.9641  158.5880 C.2     1  UNL1        0.2256
     17 C         141.6126  138.7828  157.4547 C.3     1  UNL1        0.0870
     18 C         142.8275  138.0832  157.9884 C.3     1  UNL1        0.0311
     19 C         142.6125  137.8323  159.4517 C.3     1  UNL1        0.0938
     20 N         141.2648  138.3767  159.8222 N.am    1  UNL1       -0.2811
     21 O         139.3515  144.7895  163.3067 O.3     1  UNL1       -0.4313
     22 C         139.9537  144.8421  161.9339 C.ar    1  UNL1        0.2628
     23 N         139.4830  145.6999  160.7969 N.ar    1  UNL1       -0.2050
     24 C         140.3707  145.4341  159.6173 C.ar    1  UNL1        0.0910
     25 C         140.3825  145.9907  158.2245 C.ar    1  UNL1        0.0197
     26 C         141.4136  145.5252  157.2396 C.ar    1  UNL1        0.0016
     27 C         142.4329  144.5032  157.6475 C.ar    1  UNL1        0.0006
     28 C         142.4211  143.9466  159.0404 C.ar    1  UNL1        0.0081
     29 C         141.3900  144.4120  160.0253 C.ar    1  UNL1        0.0515
     30 S         141.1322  144.0462  161.4570 S.2     1  UNL1       -0.0283
@<TRIPOS>BOND
     1    15    16    2
     2    16    17    1
     3    17    18    1
     4    18    19    1
     5    19    20    1
     6    20     9    1
     7     9    10    1
     8    10    11    1
     9    11    12    1
    10    12     8    1
    11     8     7    1
    12     7     1    1
    13     1     2   ar
    14     2     3   ar
    15     3     4   ar
    16     4    21    1
    17    21    22    1
    18    22    23   ar
    19    23    24   ar
    20    24    25   ar
    21    25    26   ar
    22    26    27   ar
    23    27    28   ar
    24    28    29   ar
    25    29    30   ar
    26     4     5   ar
    27     5     6   ar
    28    12    13    1
    29    13    14    1
    30    20    16   am
    31    14     9    1
    32     6     1   ar
    33    30    22   ar
    34    29    24   ar
@<TRIPOS>MOLECULE
*****
 30 34 0 0 0
SMALL
GASTEIGER

@<TRIPOS>ATOM
      1 C         140.4786  139.7206  167.0779 C.ar    1  UNL1       -0.0206
      2 C         138.9881  139.6202  166.9436 C.ar    1  UNL1       -0.0011
      3 C         138.3874  138.8938  165.7766 C.ar    1  UNL1        0.0373
      4 C         139.2774  138.2679  164.7441 C.ar    1  UNL1        0.1477
      5 C         140.7681  138.3683  164.8785 C.ar    1  UNL1        0.0373
      6 C         141.3686  139.0947  166.0454 C.ar    1  UNL1       -0.0011
      7 C         141.0793  140.4470  168.2449 C.3     1  UNL1        0.0437
      8 C         141.5155  141.8744  168.0959 C.3     1  UNL1        0.0768
      9 C         140.9596  143.9987  164.1681 C.3     1  UNL1        0.0781
     10 C         142.2839  143.3804  164.5054 C.3     1  UNL1        0.0372
     11 C         142.4692  142.6722  165.8148 C.3     1  UNL1        0.0738
     12 N         141.3302  142.5824  166.7867 N.3     1  UNL1       -0.2723
     13 C         140.0059  143.2008  166.4492 C.3     1  UNL1        0.0738
     14 C         139.8206  143.9089  165.1400 C.3     1  UNL1        0.0372
     15 O         142.7860  143.5954  161.4940 O.2     1  UNL1       -0.2749
     16 C         141.6139  144.5214  161.6296 C.2     1  UNL1        0.2256
     17 C         141.0754  145.4246  160.5599 C.3     1  UNL1        0.0870
     18 C         139.9030  146.1683  161.1280 C.3     1  UNL1        0.0311
     19 C         139.7170  145.7246  162.5488 C.3     1  UNL1        0.0938
     20 N         140.7743  144.7068  162.8588 N.am    1  UNL1       -0.2811
     21 O         138.6769  137.5415  163.5772 O.3     1  UNL1       -0.4313
     22 C         138.7024  138.1638  162.2126 C.ar    1  UNL1        0.2628
     23 N         137.6740  139.1003  161.6512 N.ar    1  UNL1       -0.2050
     24 C         138.0969  139.4741  160.2614 C.ar    1  UNL1        0.0910
     25 C         137.4741  140.3658  159.2285 C.ar    1  UNL1        0.0197
     26 C         138.1412  140.5519  157.8980 C.ar    1  UNL1        0.0016
     27 C         139.4310  139.8464  157.6004 C.ar    1  UNL1        0.0006
     28 C         140.0538  138.9547  158.6334 C.ar    1  UNL1        0.0081
     29 C         139.3867  138.7686  159.9639 C.ar    1  UNL1        0.0515
     30 S         139.7610  137.9588  161.1698 S.2     1  UNL1       -0.0283
@<TRIPOS>BOND
     1    15    16    2
     2    16    17    1
     3    17    18    1
     4    18    19    1
     5    19    20    1
     6    20     9    1
     7     9    10    1
     8    10    11    1
     9    11    12    1
    10    12     8    1
    11     8     7    1
    12     7     1    1
    13     1     2   ar
    14     2     3   ar
    15     3     4   ar
    16     4    21    1
    17    21    22    1
    18    22    23   ar
    19    23    24   ar
    20    24    25   ar
    21    25    26   ar
    22    26    27   ar
    23    27    28   ar
    24    28    29   ar
    25    29    30   ar
    26     4     5   ar
    27     5     6   ar
    28    12    13    1
    29    13    14    1
    30    20    16   am
    31    14     9    1
    32     6     1   ar
    33    30    22   ar
    34    29    24   ar
@<TRIPOS>MOLECULE
*****
 30 34 0 0 0
SMALL
GASTEIGER

@<TRIPOS>ATOM
      1 C         140.7392  139.0488  160.2247 C.ar    1  UNL1       -0.0206
      2 C         142.0584  138.4618  160.6310 C.ar    1  UNL1       -0.0011
      3 C         142.9069  137.7513  159.6185 C.ar    1  UNL1        0.0373
      4 C         142.4362  137.6277  158.1996 C.ar    1  UNL1        0.1477
      5 C         141.1169  138.2147  157.7933 C.ar    1  UNL1        0.0373
      6 C         140.2684  138.9252  158.8059 C.ar    1  UNL1       -0.0011
      7 C         139.8907  139.7593  161.2373 C.3     1  UNL1        0.0437
      8 C         140.4901  140.8310  162.0987 C.3     1  UNL1        0.0768
      9 C         140.6155  140.3178  166.5676 C.3     1  UNL1        0.0781
     10 C         140.1252  139.1986  165.6976 C.3     1  UNL1        0.0372
     11 C         140.0834  139.3696  164.2079 C.3     1  UNL1        0.0738
     12 N         140.5319  140.6599  163.5883 N.3     1  UNL1       -0.2723
     13 C         141.0223  141.7792  164.4583 C.3     1  UNL1        0.0738
     14 C         141.0641  141.6081  165.9479 C.3     1  UNL1        0.0372
     15 O         143.1190  139.1322  168.2927 O.2     1  UNL1       -0.2749
     16 C         141.8081  139.6017  168.8502 C.2     1  UNL1        0.2256
     17 C         141.4177  139.6088  170.2984 C.3     1  UNL1        0.0870
     18 C         140.0256  140.1581  170.4006 C.3     1  UNL1        0.0311
     19 C         139.5557  140.4906  169.0154 C.3     1  UNL1        0.0938
     20 N         140.6573  140.1467  168.0572 N.am    1  UNL1       -0.2811
     21 O         143.2846  136.9172  157.1871 O.3     1  UNL1       -0.4313
     22 C         143.0038  135.4836  156.8467 C.ar    1  UNL1        0.2628
     23 N         143.6504  134.2851  157.4755 N.ar    1  UNL1       -0.2050
     24 C         143.0733  133.0575  156.8351 C.ar    1  UNL1        0.0910
     25 C         143.3318  131.5961  157.0526 C.ar    1  UNL1        0.0197
     26 C         142.5869  130.5745  156.2455 C.ar    1  UNL1        0.0016
     27 C         141.5835  131.0143  155.2209 C.ar    1  UNL1        0.0006
     28 C         141.3251  132.4758  155.0034 C.ar    1  UNL1        0.0081
     29 C         142.0699  133.4974  155.8105 C.ar    1  UNL1        0.0515
     30 S         142.0270  134.9967  155.8177 S.2     1  UNL1       -0.0283
@<TRIPOS>BOND
     1    15    16    2
     2    16    17    1
     3    17    18    1
     4    18    19    1
     5    19    20    1
     6    20     9    1
     7     9    10    1
     8    10    11    1
     9    11    12    1
    10    12     8    1
    11     8     7    1
    12     7     1    1
    13     1     2   ar
    14     2     3   ar
    15     3     4   ar
    16     4    21    1
    17    21    22    1
    18    22    23   ar
    19    23    24   ar
    20    24    25   ar
    21    25    26   ar
    22    26    27   ar
    23    27    28   ar
    24    28    29   ar
    25    29    30   ar
    26     4     5   ar
    27     5     6   ar
    28    12    13    1
    29    13    14    1
    30    20    16   am
    31    14     9    1
    32     6     1   ar
    33    30    22   ar
    34    29    24   ar
