@<TRIPOS>MOLECULE
*****
 29 31 0 0 0
SMALL
GASTEIGER

@<TRIPOS>ATOM
      1 C         140.4107  139.1719  165.7436 C.ar    1  UNL1        0.1409
      2 N         140.8258  139.8101  167.0360 N.ar    1  UNL1       -0.1986
      3 C         142.2302  139.6457  167.5366 C.ar    1  UNL1        0.2181
      4 N         143.2195  138.8430  166.7448 N.ar    1  UNL1       -0.2120
      5 C         142.8045  138.2048  165.4524 C.ar    1  UNL1        0.1091
      6 C         141.4001  138.3692  164.9518 C.ar    1  UNL1        0.1040
      7 C         140.9851  137.7310  163.6593 C.2     1  UNL1        0.2470
      8 N         141.9950  137.5140  162.5717 N.am    1  UNL1       -0.3252
      9 O         139.5600  137.3097  163.4545 O.2     1  UNL1       -0.2702
     10 H         142.9303  137.7905  162.7061 H       1  UNL1        0.1453
     11 H         141.7226  137.0951  161.7234 H       1  UNL1        0.1453
     12 N         139.0064  139.3363  165.2429 N.pl3   1  UNL1       -0.2977
     13 H         138.3567  138.6044  165.3502 H       1  UNL1        0.1536
     14 C         138.7660  144.5268  165.2296 C.3     1  UNL1        0.0311
     15 C         138.4716  143.2111  164.5722 C.ar    1  UNL1       -0.0206
     16 C         137.7627  143.1749  163.2509 C.ar    1  UNL1       -0.0042
     17 C         137.4683  141.8591  162.5935 C.ar    1  UNL1        0.0009
     18 C         137.8828  140.5796  163.2575 C.ar    1  UNL1        0.0146
     19 C         138.5918  140.6158  164.5789 C.ar    1  UNL1        0.0491
     20 C         138.8862  141.9316  165.2362 C.ar    1  UNL1        0.0104
     21 N         142.6453  140.2839  168.8291 N.pl3   1  UNL1       -0.3032
     22 H         143.5097  140.0502  169.2382 H       1  UNL1        0.1496
     23 C         141.7432  141.2782  169.4982 C.3     1  UNL1        0.0875
     24 C         141.2821  142.4943  168.7509 C.3     1  UNL1        0.0224
     25 C         140.3800  143.4886  169.4200 C.3     1  UNL1        0.0188
     26 C         139.9390  143.2667  170.8365 C.3     1  UNL1        0.0687
     27 N         140.4001  142.0505  171.5838 N.3     1  UNL1       -0.2961
     28 C         141.3022  141.0563  170.9147 C.3     1  UNL1        0.0884
     29 H         139.5616  141.5434  171.8669 H       1  UNL1        0.1233
@<TRIPOS>BOND
     1    14    15    1
     2    15    16   ar
     3    16    17   ar
     4    17    18   ar
     5    18    19   ar
     6    19    12    1
     7    12     1    1
     8     1     2   ar
     9     2     3   ar
    10     3    21    1
    11    23    21    1
    12    23    24    1
    13    24    25    1
    14    25    26    1
    15    26    27    1
    16    27    28    1
    17     3     4   ar
    18     4     5   ar
    19     5     6   ar
    20     6     7    1
    21     7     8   am
    22     7     9    2
    23    19    20   ar
    24    20    15   ar
    25     6     1   ar
    26    28    23    1
    27    12    13    1
    28    21    22    1
    29    27    29    1
    30     8    10    1
    31     8    11    1
@<TRIPOS>MOLECULE
*****
 29 31 0 0 0
SMALL
GASTEIGER

@<TRIPOS>ATOM
      1 C         141.7514  141.3549  167.5210 C.ar    1  UNL1        0.1409
      2 N         140.7606  140.4404  166.8637 N.ar    1  UNL1       -0.1986
      3 C         139.5564  139.9687  167.6237 C.ar    1  UNL1        0.2181
      4 N         139.3431  140.4115  169.0408 N.ar    1  UNL1       -0.2120
      5 C         140.3339  141.3260  169.6981 C.ar    1  UNL1        0.1091
      6 C         141.5380  141.7977  168.9383 C.ar    1  UNL1        0.1040
      7 C         142.5288  142.7122  169.5955 C.2     1  UNL1        0.2470
      8 N         142.0650  143.7178  170.6072 N.am    1  UNL1       -0.3252
      9 O         143.9836  142.6210  169.2411 O.2     1  UNL1       -0.2702
     10 H         141.1102  143.7777  170.8398 H       1  UNL1        0.1453
     11 H         142.7153  144.3180  171.0386 H       1  UNL1        0.1453
     12 N         142.9556  141.8266  166.7612 N.pl3   1  UNL1       -0.2977
     13 H         143.8384  141.4304  166.9425 H       1  UNL1        0.1536
     14 C         139.9487  144.7997  163.7413 C.3     1  UNL1        0.0311
     15 C         141.3112  144.3885  164.2150 C.ar    1  UNL1       -0.0206
     16 C         142.5328  145.0527  163.6525 C.ar    1  UNL1       -0.0042
     17 C         143.8954  144.6416  164.1262 C.ar    1  UNL1        0.0009
     18 C         144.0363  143.5662  165.1624 C.ar    1  UNL1        0.0146
     19 C         142.8147  142.9020  165.7249 C.ar    1  UNL1        0.0491
     20 C         141.4522  143.3132  165.2512 C.ar    1  UNL1        0.0104
     21 N         138.5656  139.0542  166.9664 N.pl3   1  UNL1       -0.3032
     22 H         137.9487  138.5197  167.5167 H       1  UNL1        0.1496
     23 C         138.5148  138.9543  165.4705 C.3     1  UNL1        0.0875
     24 C         138.9405  137.6880  164.7886 C.3     1  UNL1        0.0224
     25 C         138.8897  137.5880  163.2927 C.3     1  UNL1        0.0188
     26 C         138.4131  138.7544  162.4789 C.3     1  UNL1        0.0687
     27 N         137.9873  140.0208  163.1609 N.3     1  UNL1       -0.2961
     28 C         138.0381  140.1207  164.6567 C.3     1  UNL1        0.0884
     29 H         137.0197  140.1917  162.8872 H       1  UNL1        0.1233
@<TRIPOS>BOND
     1    14    15    1
     2    15    16   ar
     3    16    17   ar
     4    17    18   ar
     5    18    19   ar
     6    19    12    1
     7    12     1    1
     8     1     2   ar
     9     2     3   ar
    10     3    21    1
    11    23    21    1
    12    23    24    1
    13    24    25    1
    14    25    26    1
    15    26    27    1
    16    27    28    1
    17     3     4   ar
    18     4     5   ar
    19     5     6   ar
    20     6     7    1
    21     7     8   am
    22     7     9    2
    23    19    20   ar
    24    20    15   ar
    25     6     1   ar
    26    28    23    1
    27    12    13    1
    28    21    22    1
    29    27    29    1
    30     8    10    1
    31     8    11    1
@<TRIPOS>MOLECULE
*****
 29 31 0 0 0
SMALL
GASTEIGER

@<TRIPOS>ATOM
      1 C         140.2175  139.7775  166.9391 C.ar    1  UNL1        0.1409
      2 N         141.3492  139.4201  166.0218 N.ar    1  UNL1       -0.1986
      3 C         142.7328  139.2397  166.5725 C.ar    1  UNL1        0.2181
      4 N         142.9846  139.4169  168.0406 N.ar    1  UNL1       -0.2120
      5 C         141.8529  139.7743  168.9579 C.ar    1  UNL1        0.1091
      6 C         140.4694  139.9546  168.4072 C.ar    1  UNL1        0.1040
      7 C         139.3377  140.3121  169.3246 C.2     1  UNL1        0.2470
      8 N         139.4472  141.5115  170.2186 N.am    1  UNL1       -0.3252
      9 O         138.0965  139.4701  169.3478 O.2     1  UNL1       -0.2702
     10 H         140.2618  142.0641  170.2034 H       1  UNL1        0.1453
     11 H         138.7044  141.7461  170.8207 H       1  UNL1        0.1453
     12 N         138.8340  139.9578  166.3884 N.pl3   1  UNL1       -0.2977
     13 H         138.0897  139.4182  166.7408 H       1  UNL1        0.1536
     14 C         139.2921  144.7883  164.5291 C.3     1  UNL1        0.0311
     15 C         138.8134  143.3755  164.3712 C.ar    1  UNL1       -0.0206
     16 C         138.0852  142.9651  163.1257 C.ar    1  UNL1       -0.0042
     17 C         137.6066  141.5523  162.9677 C.ar    1  UNL1        0.0009
     18 C         137.8562  140.5499  164.0553 C.ar    1  UNL1        0.0146
     19 C         138.5844  140.9603  165.3008 C.ar    1  UNL1        0.0491
     20 C         139.0630  142.3731  165.4587 C.ar    1  UNL1        0.0104
     21 N         143.8645  138.8823  165.6552 N.pl3   1  UNL1       -0.3032
     22 H         144.3681  138.0483  165.7966 H       1  UNL1        0.1496
     23 C         144.2288  139.7957  164.5224 C.3     1  UNL1        0.0875
     24 C         144.3990  141.2654  164.7691 C.3     1  UNL1        0.0224
     25 C         144.7634  142.1788  163.6363 C.3     1  UNL1        0.0188
     26 C         144.9575  141.6223  162.2569 C.3     1  UNL1        0.0687
     27 N         144.7873  140.1525  162.0103 N.3     1  UNL1       -0.2961
     28 C         144.4230  139.2392  163.1431 C.3     1  UNL1        0.0884
     29 H         145.6714  139.8132  161.6313 H       1  UNL1        0.1233
@<TRIPOS>BOND
     1    14    15    1
     2    15    16   ar
     3    16    17   ar
     4    17    18   ar
     5    18    19   ar
     6    19    12    1
     7    12     1    1
     8     1     2   ar
     9     2     3   ar
    10     3    21    1
    11    23    21    1
    12    23    24    1
    13    24    25    1
    14    25    26    1
    15    26    27    1
    16    27    28    1
    17     3     4   ar
    18     4     5   ar
    19     5     6   ar
    20     6     7    1
    21     7     8   am
    22     7     9    2
    23    19    20   ar
    24    20    15   ar
    25     6     1   ar
    26    28    23    1
    27    12    13    1
    28    21    22    1
    29    27    29    1
    30     8    10    1
    31     8    11    1
@<TRIPOS>MOLECULE
*****
 29 31 0 0 0
SMALL
GASTEIGER

@<TRIPOS>ATOM
      1 C         140.2827  140.0462  166.3561 C.ar    1  UNL1        0.1409
      2 N         140.9433  140.7528  165.2097 N.ar    1  UNL1       -0.1986
      3 C         140.1630  141.0543  163.9645 C.ar    1  UNL1        0.2181
      4 N         138.7222  140.6492  163.8658 N.ar    1  UNL1       -0.2120
      5 C         138.0616  139.9426  165.0122 C.ar    1  UNL1        0.1091
      6 C         138.8418  139.6410  166.2573 C.ar    1  UNL1        0.1040
      7 C         138.1811  138.9344  167.4037 C.2     1  UNL1        0.2470
      8 N         137.3316  137.7245  167.1497 N.am    1  UNL1       -0.3252
      9 O         138.3700  139.4377  168.8041 O.2     1  UNL1       -0.2702
     10 H         137.2076  137.3942  166.2306 H       1  UNL1        0.1453
     11 H         136.8980  137.2607  167.9021 H       1  UNL1        0.1453
     12 N         141.0629  139.7446  167.6012 N.pl3   1  UNL1       -0.2977
     13 H         141.2421  138.8107  167.8557 H       1  UNL1        0.1536
     14 C         140.2791  144.2932  169.9879 C.3     1  UNL1        0.0311
     15 C         141.1781  143.1404  169.6519 C.ar    1  UNL1       -0.0206
     16 C         142.5843  143.1092  170.1731 C.ar    1  UNL1       -0.0042
     17 C         143.4833  141.9565  169.8371 C.ar    1  UNL1        0.0009
     18 C         142.9762  140.8350  168.9798 C.ar    1  UNL1        0.0146
     19 C         141.5701  140.8662  168.4585 C.ar    1  UNL1        0.0491
     20 C         140.6710  142.0189  168.7946 C.ar    1  UNL1        0.0104
     21 N         140.8237  141.7610  162.8181 N.pl3   1  UNL1       -0.3032
     22 H         140.6264  141.4890  161.8927 H       1  UNL1        0.1496
     23 C         141.7849  142.8820  163.0818 C.3     1  UNL1        0.0875
     24 C         141.2756  144.2109  163.5556 C.3     1  UNL1        0.0224
     25 C         142.2368  145.3319  163.8192 C.3     1  UNL1        0.0188
     26 C         143.7073  145.1240  163.6090 C.3     1  UNL1        0.0687
     27 N         144.2167  143.7950  163.1350 N.3     1  UNL1       -0.2961
     28 C         143.2555  142.6741  162.8715 C.3     1  UNL1        0.0884
     29 H         144.8713  143.4613  163.8425 H       1  UNL1        0.1233
@<TRIPOS>BOND
     1    14    15    1
     2    15    16   ar
     3    16    17   ar
     4    17    18   ar
     5    18    19   ar
     6    19    12    1
     7    12     1    1
     8     1     2   ar
     9     2     3   ar
    10     3    21    1
    11    23    21    1
    12    23    24    1
    13    24    25    1
    14    25    26    1
    15    26    27    1
    16    27    28    1
    17     3     4   ar
    18     4     5   ar
    19     5     6   ar
    20     6     7    1
    21     7     8   am
    22     7     9    2
    23    19    20   ar
    24    20    15   ar
    25     6     1   ar
    26    28    23    1
    27    12    13    1
    28    21    22    1
    29    27    29    1
    30     8    10    1
    31     8    11    1
@<TRIPOS>MOLECULE
*****
 29 31 0 0 0
SMALL
GASTEIGER

@<TRIPOS>ATOM
      1 C         139.1299  141.5756  165.3115 C.ar    1  UNL1        0.1409
      2 N         139.7479  141.3732  166.6632 N.ar    1  UNL1       -0.1986
      3 C         139.5456  140.0789  167.3942 C.ar    1  UNL1        0.2181
      4 N         138.7254  138.9872  166.7734 N.ar    1  UNL1       -0.2120
      5 C         138.1075  139.1897  165.4217 C.ar    1  UNL1        0.1091
      6 C         138.3097  140.4838  164.6908 C.ar    1  UNL1        0.1040
      7 C         137.6917  140.6862  163.3390 C.2     1  UNL1        0.2470
      8 N         137.6735  139.5615  162.3467 N.am    1  UNL1       -0.3252
      9 O         137.0919  142.0133  162.9797 O.2     1  UNL1       -0.2702
     10 H         138.0672  138.6905  162.5825 H       1  UNL1        0.1453
     11 H         137.2679  139.6944  161.4595 H       1  UNL1        0.1453
     12 N         139.3321  142.8697  164.5806 N.pl3   1  UNL1       -0.2977
     13 H         138.5572  143.3559  164.2168 H       1  UNL1        0.1536
     14 C         144.4871  142.2365  164.7424 C.3     1  UNL1        0.0311
     15 C         143.2926  143.1065  164.4848 C.ar    1  UNL1       -0.0206
     16 C         143.4810  144.5298  164.0505 C.ar    1  UNL1       -0.0042
     17 C         142.2865  145.3997  163.7929 C.ar    1  UNL1        0.0009
     18 C         140.9036  144.8464  163.9695 C.ar    1  UNL1        0.0146
     19 C         140.7151  143.4231  164.4039 C.ar    1  UNL1        0.0491
     20 C         141.9096  142.5531  164.6615 C.ar    1  UNL1        0.0104
     21 N         140.1636  139.8765  168.7459 N.pl3   1  UNL1       -0.3032
     22 H         139.9723  139.0571  169.2569 H       1  UNL1        0.1496
     23 C         141.0731  140.9227  169.3191 C.3     1  UNL1        0.0875
     24 C         142.5441  140.8779  169.0295 C.3     1  UNL1        0.0224
     25 C         143.4536  141.9241  169.6026 C.3     1  UNL1        0.0188
     26 C         142.8919  143.0151  170.4653 C.3     1  UNL1        0.0687
     27 N         141.4208  143.0599  170.7549 N.3     1  UNL1       -0.2961
     28 C         140.5114  142.0137  170.1818 C.3     1  UNL1        0.0884
     29 H         141.0817  143.9611  170.4184 H       1  UNL1        0.1233
@<TRIPOS>BOND
     1    14    15    1
     2    15    16   ar
     3    16    17   ar
     4    17    18   ar
     5    18    19   ar
     6    19    12    1
     7    12     1    1
     8     1     2   ar
     9     2     3   ar
    10     3    21    1
    11    23    21    1
    12    23    24    1
    13    24    25    1
    14    25    26    1
    15    26    27    1
    16    27    28    1
    17     3     4   ar
    18     4     5   ar
    19     5     6   ar
    20     6     7    1
    21     7     8   am
    22     7     9    2
    23    19    20   ar
    24    20    15   ar
    25     6     1   ar
    26    28    23    1
    27    12    13    1
    28    21    22    1
    29    27    29    1
    30     8    10    1
    31     8    11    1
@<TRIPOS>MOLECULE
*****
 29 31 0 0 0
SMALL
GASTEIGER

@<TRIPOS>ATOM
      1 C         139.9920  140.0610  165.3718 C.ar    1  UNL1        0.1409
      2 N         140.2397  140.3602  166.8207 N.ar    1  UNL1       -0.1986
      3 C         139.3587  139.7545  167.8728 C.ar    1  UNL1        0.2181
      4 N         138.2301  138.8496  167.4762 N.ar    1  UNL1       -0.2120
      5 C         137.9824  138.5503  166.0273 C.ar    1  UNL1        0.1091
      6 C         138.8634  139.1560  164.9752 C.ar    1  UNL1        0.1040
      7 C         138.6157  138.8568  163.5263 C.2     1  UNL1        0.2470
      8 N         138.7149  137.4469  163.0241 N.am    1  UNL1       -0.3252
      9 O         138.2689  139.9675  162.5797 O.2     1  UNL1       -0.2702
     10 H         138.9425  136.7179  163.6454 H       1  UNL1        0.1453
     11 H         138.5523  137.2505  162.0732 H       1  UNL1        0.1453
     12 N         140.8729  140.6667  164.3197 N.pl3   1  UNL1       -0.2977
     13 H         141.4082  140.0860  163.7318 H       1  UNL1        0.1536
     14 C         143.6646  145.0289  163.8988 C.3     1  UNL1        0.0311
     15 C         142.3342  144.3382  163.9527 C.ar    1  UNL1       -0.0206
     16 C         141.0693  145.1378  163.8501 C.ar    1  UNL1       -0.0042
     17 C         139.7389  144.4470  163.9041 C.ar    1  UNL1        0.0009
     18 C         139.6734  142.9567  164.0606 C.ar    1  UNL1        0.0146
     19 C         140.9384  142.1571  164.1632 C.ar    1  UNL1        0.0491
     20 C         142.2688  142.8478  164.1092 C.ar    1  UNL1        0.0104
     21 N         139.6063  140.0537  169.3217 N.pl3   1  UNL1       -0.3032
     22 H         139.0807  139.5946  170.0160 H       1  UNL1        0.1496
     23 C         140.6549  141.0526  169.7126 C.3     1  UNL1        0.0875
     24 C         140.3525  142.5205  169.6509 C.3     1  UNL1        0.0224
     25 C         141.4011  143.5194  170.0418 C.3     1  UNL1        0.0188
     26 C         142.7520  143.0504  170.4945 C.3     1  UNL1        0.0687
     27 N         143.0544  141.5824  170.5562 N.3     1  UNL1       -0.2961
     28 C         142.0058  140.5836  170.1653 C.3     1  UNL1        0.0884
     29 H         143.3131  141.3754  171.5209 H       1  UNL1        0.1233
@<TRIPOS>BOND
     1    14    15    1
     2    15    16   ar
     3    16    17   ar
     4    17    18   ar
     5    18    19   ar
     6    19    12    1
     7    12     1    1
     8     1     2   ar
     9     2     3   ar
    10     3    21    1
    11    23    21    1
    12    23    24    1
    13    24    25    1
    14    25    26    1
    15    26    27    1
    16    27    28    1
    17     3     4   ar
    18     4     5   ar
    19     5     6   ar
    20     6     7    1
    21     7     8   am
    22     7     9    2
    23    19    20   ar
    24    20    15   ar
    25     6     1   ar
    26    28    23    1
    27    12    13    1
    28    21    22    1
    29    27    29    1
    30     8    10    1
    31     8    11    1
@<TRIPOS>MOLECULE
*****
 29 31 0 0 0
SMALL
GASTEIGER

@<TRIPOS>ATOM
      1 C         140.2390  141.6806  167.4968 C.ar    1  UNL1        0.1409
      2 N         139.7511  140.6154  166.5601 N.ar    1  UNL1       -0.1986
      3 C         138.9468  139.4641  167.0873 C.ar    1  UNL1        0.2181
      4 N         138.6304  139.3781  168.5509 N.ar    1  UNL1       -0.2120
      5 C         139.1183  140.4433  169.4876 C.ar    1  UNL1        0.1091
      6 C         139.9226  141.5945  168.9606 C.ar    1  UNL1        0.1040
      7 C         140.4104  142.6597  169.8972 C.2     1  UNL1        0.2470
      8 N         141.1646  142.2802  171.1370 N.am    1  UNL1       -0.3252
      9 O         140.1441  144.1045  169.5940 O.2     1  UNL1       -0.2702
     10 H         141.3394  141.3320  171.3360 H       1  UNL1        0.1453
     11 H         141.4848  142.9794  171.7518 H       1  UNL1        0.1453
     12 N         141.0433  142.8318  166.9698 N.pl3   1  UNL1       -0.2977
     13 H         141.8403  143.1402  167.4586 H       1  UNL1        0.1536
     14 C         142.1640  144.4129  162.1486 C.3     1  UNL1        0.0311
     15 C         141.1937  144.3037  163.2873 C.ar    1  UNL1       -0.0206
     16 C         139.8136  144.8758  163.1541 C.ar    1  UNL1       -0.0042
     17 C         138.8433  144.7665  164.2927 C.ar    1  UNL1        0.0009
     18 C         139.2532  144.0852  165.5646 C.ar    1  UNL1        0.0146
     19 C         140.6333  143.5131  165.6978 C.ar    1  UNL1        0.0491
     20 C         141.6036  143.6224  164.5591 C.ar    1  UNL1        0.0104
     21 N         138.4589  138.3989  166.1506 N.pl3   1  UNL1       -0.3032
     22 H         137.6938  137.8335  166.4038 H       1  UNL1        0.1496
     23 C         139.1369  138.1952  164.8281 C.3     1  UNL1        0.0875
     24 C         140.4141  137.4122  164.7528 C.3     1  UNL1        0.0224
     25 C         141.0920  137.2084  163.4302 C.3     1  UNL1        0.0188
     26 C         140.4928  137.7877  162.1831 C.3     1  UNL1        0.0687
     27 N         139.2155  138.5708  162.2585 N.3     1  UNL1       -0.2961
     28 C         138.5376  138.7745  163.5810 C.3     1  UNL1        0.0884
     29 H         138.5442  138.0981  161.6532 H       1  UNL1        0.1233
@<TRIPOS>BOND
     1    14    15    1
     2    15    16   ar
     3    16    17   ar
     4    17    18   ar
     5    18    19   ar
     6    19    12    1
     7    12     1    1
     8     1     2   ar
     9     2     3   ar
    10     3    21    1
    11    23    21    1
    12    23    24    1
    13    24    25    1
    14    25    26    1
    15    26    27    1
    16    27    28    1
    17     3     4   ar
    18     4     5   ar
    19     5     6   ar
    20     6     7    1
    21     7     8   am
    22     7     9    2
    23    19    20   ar
    24    20    15   ar
    25     6     1   ar
    26    28    23    1
    27    12    13    1
    28    21    22    1
    29    27    29    1
    30     8    10    1
    31     8    11    1
@<TRIPOS>MOLECULE
*****
 29 31 0 0 0
SMALL
GASTEIGER

@<TRIPOS>ATOM
      1 C         140.6269  140.3962  167.6096 C.ar    1  UNL1        0.1409
      2 N         141.5383  140.9496  166.5546 N.ar    1  UNL1       -0.1986
      3 C         142.6067  141.9343  166.9277 C.ar    1  UNL1        0.2181
      4 N         142.7637  142.3654  168.3558 N.ar    1  UNL1       -0.2120
      5 C         141.8523  141.8120  169.4108 C.ar    1  UNL1        0.1091
      6 C         140.7839  140.8275  169.0378 C.ar    1  UNL1        0.1040
      7 C         139.8725  140.2741  170.0928 C.2     1  UNL1        0.2470
      8 N         140.3833  140.0566  171.4862 N.am    1  UNL1       -0.3252
      9 O         138.4503  139.9382  169.7543 O.2     1  UNL1       -0.2702
     10 H         141.3167  140.2770  171.7084 H       1  UNL1        0.1453
     11 H         139.7851  139.6934  172.1787 H       1  UNL1        0.1453
     12 N         139.5586  139.4117  167.2366 N.pl3   1  UNL1       -0.2977
     13 H         139.1411  138.8518  167.9305 H       1  UNL1        0.1536
     14 C         137.3399  141.4452  163.0008 C.3     1  UNL1        0.0311
     15 C         138.0169  140.2968  163.6884 C.ar    1  UNL1       -0.0206
     16 C         138.2617  139.0168  162.9457 C.ar    1  UNL1       -0.0042
     17 C         138.9387  137.8684  163.6332 C.ar    1  UNL1        0.0009
     18 C         139.3710  138.0000  165.0635 C.ar    1  UNL1        0.0146
     19 C         139.1263  139.2800  165.8062 C.ar    1  UNL1        0.0491
     20 C         138.4492  140.4284  165.1186 C.ar    1  UNL1        0.0104
     21 N         143.5181  142.4877  165.8727 N.pl3   1  UNL1       -0.3032
     22 H         144.4737  142.2507  165.8740 H       1  UNL1        0.1496
     23 C         142.9736  143.4021  164.8156 C.3     1  UNL1        0.0875
     24 C         141.4948  143.6306  164.7107 C.3     1  UNL1        0.0224
     25 C         140.9503  144.5451  163.6537 C.3     1  UNL1        0.0188
     26 C         141.8846  145.2311  162.7015 C.3     1  UNL1        0.0687
     27 N         143.3634  145.0025  162.8065 N.3     1  UNL1       -0.2961
     28 C         143.9079  144.0881  163.8635 C.3     1  UNL1        0.0884
     29 H         143.7925  145.9155  162.9575 H       1  UNL1        0.1233
@<TRIPOS>BOND
     1    14    15    1
     2    15    16   ar
     3    16    17   ar
     4    17    18   ar
     5    18    19   ar
     6    19    12    1
     7    12     1    1
     8     1     2   ar
     9     2     3   ar
    10     3    21    1
    11    23    21    1
    12    23    24    1
    13    24    25    1
    14    25    26    1
    15    26    27    1
    16    27    28    1
    17     3     4   ar
    18     4     5   ar
    19     5     6   ar
    20     6     7    1
    21     7     8   am
    22     7     9    2
    23    19    20   ar
    24    20    15   ar
    25     6     1   ar
    26    28    23    1
    27    12    13    1
    28    21    22    1
    29    27    29    1
    30     8    10    1
    31     8    11    1
@<TRIPOS>MOLECULE
*****
 29 31 0 0 0
SMALL
GASTEIGER

@<TRIPOS>ATOM
      1 C         137.8454  140.0591  163.8496 C.ar    1  UNL1        0.1409
      2 N         137.9031  140.0644  165.3484 N.ar    1  UNL1       -0.1986
      3 C         138.5095  138.9036  166.0798 C.ar    1  UNL1        0.2181
      4 N         139.0583  137.7375  165.3123 N.ar    1  UNL1       -0.2120
      5 C         139.0006  137.7322  163.8134 C.ar    1  UNL1        0.1091
      6 C         138.3942  138.8930  163.0820 C.ar    1  UNL1        0.1040
      7 C         138.3366  138.8877  161.5831 C.2     1  UNL1        0.2470
      8 N         139.4269  138.2267  160.7930 N.am    1  UNL1       -0.3252
      9 O         137.1886  139.5433  160.8744 O.2     1  UNL1       -0.2702
     10 H         140.1803  137.7964  161.2581 H       1  UNL1        0.1453
     11 H         139.3890  138.2232  159.8092 H       1  UNL1        0.1453
     12 N         137.2391  141.2198  163.1182 N.pl3   1  UNL1       -0.2977
     13 H         136.3658  141.1203  162.6747 H       1  UNL1        0.1536
     14 C         140.1429  144.6503  160.5106 C.3     1  UNL1        0.0311
     15 C         139.4151  144.2476  161.7589 C.ar    1  UNL1       -0.0206
     16 C         139.4114  145.1573  162.9515 C.ar    1  UNL1       -0.0042
     17 C         138.6835  144.7545  164.1997 C.ar    1  UNL1        0.0009
     18 C         137.9594  143.4421  164.2553 C.ar    1  UNL1        0.0146
     19 C         137.9632  142.5324  163.0627 C.ar    1  UNL1        0.0491
     20 C         138.6910  142.9351  161.8145 C.ar    1  UNL1        0.0104
     21 N         138.5672  138.9089  167.5787 N.pl3   1  UNL1       -0.3032
     22 H         138.1798  138.1613  168.0888 H       1  UNL1        0.1496
     23 C         139.2151  140.0533  168.3003 C.3     1  UNL1        0.0875
     24 C         140.2073  140.9239  167.5878 C.3     1  UNL1        0.0224
     25 C         140.8551  142.0683  168.3094 C.3     1  UNL1        0.0188
     26 C         140.5108  142.3421  169.7434 C.3     1  UNL1        0.0687
     27 N         139.5185  141.4715  170.4559 N.3     1  UNL1       -0.2961
     28 C         138.8707  140.3271  169.7343 C.3     1  UNL1        0.0884
     29 H         138.7663  142.0822  170.7746 H       1  UNL1        0.1233
@<TRIPOS>BOND
     1    14    15    1
     2    15    16   ar
     3    16    17   ar
     4    17    18   ar
     5    18    19   ar
     6    19    12    1
     7    12     1    1
     8     1     2   ar
     9     2     3   ar
    10     3    21    1
    11    23    21    1
    12    23    24    1
    13    24    25    1
    14    25    26    1
    15    26    27    1
    16    27    28    1
    17     3     4   ar
    18     4     5   ar
    19     5     6   ar
    20     6     7    1
    21     7     8   am
    22     7     9    2
    23    19    20   ar
    24    20    15   ar
    25     6     1   ar
    26    28    23    1
    27    12    13    1
    28    21    22    1
    29    27    29    1
    30     8    10    1
    31     8    11    1
