@<TRIPOS>MOLECULE
*****
 32 33 0 0 0
SMALL
GASTEIGER

@<TRIPOS>ATOM
      1 C         139.4946  141.0192  165.6419 C.ar    1  UNL1        0.0730
      2 C         139.9305  140.9424  167.0751 C.ar    1  UNL1        0.0322
      3 C         139.2865  139.9553  168.0030 C.ar    1  UNL1        0.0654
      4 C         138.2066  139.0451  167.4977 C.ar    1  UNL1        0.1133
      5 N         137.7707  139.1219  166.0645 N.ar    1  UNL1       -0.2367
      6 C         138.4147  140.1089  165.1366 C.ar    1  UNL1        0.1476
      7 C         137.9788  140.1857  163.7034 C.2     1  UNL1        0.2617
      8 N         136.9428  141.1875  163.2872 N.am    1  UNL1       -0.3240
      9 O         138.5789  139.2608  162.6863 O.2     1  UNL1       -0.2687
     10 H         136.5489  141.7946  163.9547 H       1  UNL1        0.1453
     11 H         136.6567  141.2379  162.3465 H       1  UNL1        0.1453
     12 N         140.1385  142.0062  164.7140 N.pl3   1  UNL1       -0.2966
     13 H         139.5877  142.6777  164.2502 H       1  UNL1        0.1537
     14 C         144.8834  143.8760  165.7091 C.3     1  UNL1        0.0312
     15 C         143.9941  142.9052  164.9902 C.ar    1  UNL1       -0.0179
     16 C         144.5880  141.8986  164.0501 C.ar    1  UNL1        0.0106
     17 C         143.6987  140.9278  163.3312 C.ar    1  UNL1        0.0605
     18 C         144.2926  139.9211  162.3910 C.3     1  UNL1        0.0521
     19 N         142.2156  140.9637  163.5525 N.ar    1  UNL1       -0.2349
     20 C         141.6217  141.9703  164.4927 C.ar    1  UNL1        0.1315
     21 C         142.5110  142.9411  165.2115 C.ar    1  UNL1        0.0301
     22 N         139.7223  139.8785  169.4362 N.pl3   1  UNL1       -0.3301
     23 H         139.1253  139.4831  170.1118 H       1  UNL1        0.1469
     24 C         141.0680  140.4040  169.8401 C.3     1  UNL1        0.1115
     25 C         141.1783  141.7297  170.5331 C.3     1  UNL1        0.1667
     26 N         141.8167  141.8171  171.8877 N.3     1  UNL1       -0.3140
     27 H         142.1161  140.8878  172.1830 H       1  UNL1        0.1191
     28 H         141.1425  142.1861  172.5582 H       1  UNL1        0.1191
     29 C         140.6501  142.9680  169.8717 C.3     1  UNL1        0.4117
     30 F         140.1219  144.2064  169.2102 F       1  UNL1       -0.1685
     31 F         139.3860  142.8560  170.6713 F       1  UNL1       -0.1685
     32 F         141.9142  143.0801  169.0721 F       1  UNL1       -0.1685
@<TRIPOS>BOND
     1    14    15    1
     2    15    16   ar
     3    16    17   ar
     4    17    18    1
     5    17    19   ar
     6    19    20   ar
     7    20    12    1
     8    12     1    1
     9     1     2   ar
    10     2     3   ar
    11     3    22    1
    12    22    24    1
    13    24    25    1
    14    25    26    1
    15    25    29    1
    16    29    30    1
    17    29    31    1
    18    29    32    1
    19     3     4   ar
    20     4     5   ar
    21     5     6   ar
    22     6     7    1
    23     7     8   am
    24     7     9    2
    25    20    21   ar
    26    21    15   ar
    27     6     1   ar
    28    12    13    1
    29    22    23    1
    30    26    27    1
    31    26    28    1
    32     8    10    1
    33     8    11    1
@<TRIPOS>MOLECULE
*****
 32 33 0 0 0
SMALL
GASTEIGER

@<TRIPOS>ATOM
      1 C         140.0084  140.0769  165.6593 C.ar    1  UNL1        0.0730
      2 C         140.2046  140.3213  167.1262 C.ar    1  UNL1        0.0322
      3 C         139.1950  139.8137  168.1127 C.ar    1  UNL1        0.0654
      4 C         137.9894  139.0616  167.6324 C.ar    1  UNL1        0.1133
      5 N         137.7932  138.8172  166.1655 N.ar    1  UNL1       -0.2367
      6 C         138.8026  139.3248  165.1790 C.ar    1  UNL1        0.1476
      7 C         138.6064  139.0804  163.7121 C.2     1  UNL1        0.2617
      8 N         138.0299  140.1582  162.8427 N.am    1  UNL1       -0.3240
      9 O         138.9868  137.7581  163.1146 O.2     1  UNL1       -0.2687
     10 H         137.7803  141.0261  163.2348 H       1  UNL1        0.1453
     11 H         137.9012  139.9978  161.8799 H       1  UNL1        0.1453
     12 N         141.0178  140.5845  164.6728 N.pl3   1  UNL1       -0.2966
     13 H         141.6893  139.9712  164.2958 H       1  UNL1        0.1537
     14 C         143.5111  145.0905  163.9802 C.3     1  UNL1        0.0312
     15 C         142.2509  144.2797  163.9143 C.ar    1  UNL1       -0.0179
     16 C         140.9770  144.9111  163.4361 C.ar    1  UNL1        0.0106
     17 C         139.7168  144.1002  163.3701 C.ar    1  UNL1        0.0605
     18 C         138.4429  144.7317  162.8919 C.3     1  UNL1        0.0521
     19 N         139.7304  142.6581  163.7824 N.ar    1  UNL1       -0.2349
     20 C         141.0042  142.0268  164.2605 C.ar    1  UNL1        0.1315
     21 C         142.2644  142.8376  164.3265 C.ar    1  UNL1        0.0301
     22 N         139.3913  140.0581  169.5796 N.pl3   1  UNL1       -0.3301
     23 H         138.6245  140.0031  170.1947 H       1  UNL1        0.1469
     24 C         140.7557  140.3862  170.1094 C.3     1  UNL1        0.1115
     25 C         141.0621  141.7762  170.5829 C.3     1  UNL1        0.1667
     26 N         141.8983  141.9829  171.8109 N.3     1  UNL1       -0.3140
     27 H         142.1705  141.0773  172.1933 H       1  UNL1        0.1191
     28 H         141.3588  142.4976  172.5070 H       1  UNL1        0.1191
     29 C         140.5323  142.9594  169.8283 C.3     1  UNL1        0.4117
     30 F         140.0025  144.1426  169.0738 F       1  UNL1       -0.1685
     31 F         141.7043  142.8888  168.8949 F       1  UNL1       -0.1685
     32 F         139.3603  143.0299  170.7618 F       1  UNL1       -0.1685
@<TRIPOS>BOND
     1    14    15    1
     2    15    16   ar
     3    16    17   ar
     4    17    18    1
     5    17    19   ar
     6    19    20   ar
     7    20    12    1
     8    12     1    1
     9     1     2   ar
    10     2     3   ar
    11     3    22    1
    12    22    24    1
    13    24    25    1
    14    25    26    1
    15    25    29    1
    16    29    30    1
    17    29    31    1
    18    29    32    1
    19     3     4   ar
    20     4     5   ar
    21     5     6   ar
    22     6     7    1
    23     7     8   am
    24     7     9    2
    25    20    21   ar
    26    21    15   ar
    27     6     1   ar
    28    12    13    1
    29    22    23    1
    30    26    27    1
    31    26    28    1
    32     8    10    1
    33     8    11    1
@<TRIPOS>MOLECULE
*****
 32 33 0 0 0
SMALL
GASTEIGER

@<TRIPOS>ATOM
      1 C         138.0849  140.3288  163.8693 C.ar    1  UNL1        0.0730
      2 C         137.8788  141.8111  163.9710 C.ar    1  UNL1        0.0322
      3 C         137.8460  142.6507  162.7284 C.ar    1  UNL1        0.0654
      4 C         138.0192  142.0081  161.3842 C.ar    1  UNL1        0.1133
      5 N         138.2253  140.5258  161.2824 N.ar    1  UNL1       -0.2367
      6 C         138.2582  139.6862  162.5249 C.ar    1  UNL1        0.1476
      7 C         138.4642  138.2039  162.4232 C.2     1  UNL1        0.2617
      8 N         137.4852  137.3611  161.6610 N.am    1  UNL1       -0.3240
      9 O         139.6495  137.5644  163.0838 O.2     1  UNL1       -0.2687
     10 H         136.7073  137.7808  161.2274 H       1  UNL1        0.1453
     11 H         137.6204  136.3882  161.5942 H       1  UNL1        0.1453
     12 N         138.1177  139.4891  165.1117 N.pl3   1  UNL1       -0.2966
     13 H         137.3874  138.8554  165.2970 H       1  UNL1        0.1537
     14 C         139.8826  140.3440  169.9237 C.3     1  UNL1        0.0312
     15 C         140.1456  140.0424  168.4780 C.ar    1  UNL1       -0.0179
     16 C         141.5539  139.8668  167.9926 C.ar    1  UNL1        0.0106
     17 C         141.8169  139.5653  166.5470 C.ar    1  UNL1        0.0605
     18 C         143.2254  139.3897  166.0616 C.3     1  UNL1        0.0521
     19 N         140.6715  139.4394  165.5867 N.ar    1  UNL1       -0.2349
     20 C         139.2632  139.6150  166.0720 C.ar    1  UNL1        0.1315
     21 C         139.0002  139.9165  167.5177 C.ar    1  UNL1        0.0301
     22 N         137.6399  144.1330  162.8301 N.pl3   1  UNL1       -0.3301
     23 H         136.7548  144.4917  163.0693 H       1  UNL1        0.1469
     24 C         138.7824  145.0689  162.5673 C.3     1  UNL1        0.1115
     25 C         139.9401  145.1250  163.5195 C.3     1  UNL1        0.1667
     26 N         141.1659  145.9131  163.1641 N.3     1  UNL1       -0.3140
     27 H         141.0404  146.3419  162.2472 H       1  UNL1        0.1191
     28 H         141.9747  145.2920  163.1412 H       1  UNL1        0.1191
     29 C         139.8720  144.3930  164.8270 C.3     1  UNL1        0.4117
     30 F         139.8038  143.6610  166.1345 F       1  UNL1       -0.1685
     31 F         140.8670  143.3923  164.3185 F       1  UNL1       -0.1685
     32 F         138.8770  145.3937  165.3354 F       1  UNL1       -0.1685
@<TRIPOS>BOND
     1    14    15    1
     2    15    16   ar
     3    16    17   ar
     4    17    18    1
     5    17    19   ar
     6    19    20   ar
     7    20    12    1
     8    12     1    1
     9     1     2   ar
    10     2     3   ar
    11     3    22    1
    12    22    24    1
    13    24    25    1
    14    25    26    1
    15    25    29    1
    16    29    30    1
    17    29    31    1
    18    29    32    1
    19     3     4   ar
    20     4     5   ar
    21     5     6   ar
    22     6     7    1
    23     7     8   am
    24     7     9    2
    25    20    21   ar
    26    21    15   ar
    27     6     1   ar
    28    12    13    1
    29    22    23    1
    30    26    27    1
    31    26    28    1
    32     8    10    1
    33     8    11    1
@<TRIPOS>MOLECULE
*****
 32 33 0 0 0
SMALL
GASTEIGER

@<TRIPOS>ATOM
      1 C         142.5253  141.9102  164.0031 C.ar    1  UNL1        0.0730
      2 C         141.3729  142.8050  164.3515 C.ar    1  UNL1        0.0322
      3 C         141.4163  144.2597  163.9880 C.ar    1  UNL1        0.0654
      4 C         142.6121  144.8196  163.2763 C.ar    1  UNL1        0.1133
      5 N         143.7645  143.9248  162.9279 N.ar    1  UNL1       -0.2367
      6 C         143.7211  142.4701  163.2913 C.ar    1  UNL1        0.1476
      7 C         144.8735  141.5754  162.9429 C.2     1  UNL1        0.2617
      8 N         146.2440  141.8769  163.4728 N.am    1  UNL1       -0.3240
      9 O         144.6553  140.3790  162.0647 O.2     1  UNL1       -0.2687
     10 H         146.3872  142.6621  164.0491 H       1  UNL1        0.1453
     11 H         147.0003  141.2896  163.2441 H       1  UNL1        0.1453
     12 N         142.4819  140.4556  164.3665 N.pl3   1  UNL1       -0.2966
     13 H         143.2740  140.0224  164.7591 H       1  UNL1        0.1537
     14 C         138.2169  138.1280  166.2083 C.3     1  UNL1        0.0312
     15 C         139.0991  138.4970  165.0526 C.ar    1  UNL1       -0.0179
     16 C         138.7310  138.0714  163.6622 C.ar    1  UNL1        0.0106
     17 C         139.6131  138.4404  162.5066 C.ar    1  UNL1        0.0605
     18 C         139.2450  138.0147  161.1161 C.3     1  UNL1        0.0521
     19 N         140.8634  139.2351  162.7413 N.ar    1  UNL1       -0.2349
     20 C         141.2315  139.6608  164.1317 C.ar    1  UNL1        0.1315
     21 C         140.3494  139.2918  165.2874 C.ar    1  UNL1        0.0301
     22 N         140.2639  145.1545  164.3364 N.pl3   1  UNL1       -0.3301
     23 H         140.3805  146.1320  164.3308 H       1  UNL1        0.1469
     24 C         138.9338  144.5598  164.6933 C.3     1  UNL1        0.1115
     25 C         138.0793  143.9399  163.6278 C.3     1  UNL1        0.1667
     26 N         137.5580  144.7812  162.5006 N.3     1  UNL1       -0.3140
     27 H         137.8795  145.7422  162.6167 H       1  UNL1        0.1191
     28 H         136.5382  144.7610  162.5047 H       1  UNL1        0.1191
     29 C         137.7460  142.4787  163.6894 C.3     1  UNL1        0.4117
     30 F         137.4127  141.0174  163.7510 F       1  UNL1       -0.1685
     31 F         138.1267  142.4530  165.1400 F       1  UNL1       -0.1685
     32 F         137.3653  142.5044  162.2388 F       1  UNL1       -0.1685
@<TRIPOS>BOND
     1    14    15    1
     2    15    16   ar
     3    16    17   ar
     4    17    18    1
     5    17    19   ar
     6    19    20   ar
     7    20    12    1
     8    12     1    1
     9     1     2   ar
    10     2     3   ar
    11     3    22    1
    12    22    24    1
    13    24    25    1
    14    25    26    1
    15    25    29    1
    16    29    30    1
    17    29    31    1
    18    29    32    1
    19     3     4   ar
    20     4     5   ar
    21     5     6   ar
    22     6     7    1
    23     7     8   am
    24     7     9    2
    25    20    21   ar
    26    21    15   ar
    27     6     1   ar
    28    12    13    1
    29    22    23    1
    30    26    27    1
    31    26    28    1
    32     8    10    1
    33     8    11    1
@<TRIPOS>MOLECULE
*****
 32 33 0 0 0
SMALL
GASTEIGER

@<TRIPOS>ATOM
      1 C         141.1656  139.8825  166.6063 C.ar    1  UNL1        0.0730
      2 C         140.5617  139.9456  167.9780 C.ar    1  UNL1        0.0322
      3 C         141.3449  139.4683  169.1649 C.ar    1  UNL1        0.0654
      4 C         142.7319  138.9279  168.9803 C.ar    1  UNL1        0.1133
      5 N         143.3357  138.8647  167.6086 N.ar    1  UNL1       -0.2367
      6 C         142.5526  139.3420  166.4217 C.ar    1  UNL1        0.1476
      7 C         143.1565  139.2789  165.0501 C.2     1  UNL1        0.2617
      8 N         144.0717  140.3715  164.5826 N.am    1  UNL1       -0.3240
      9 O         142.8451  138.1231  164.1460 O.2     1  UNL1       -0.2687
     10 H         144.2761  141.1300  165.1759 H       1  UNL1        0.1453
     11 H         144.4681  140.3300  163.6823 H       1  UNL1        0.1453
     12 N         140.3825  140.3598  165.4194 N.pl3   1  UNL1       -0.2966
     13 H         139.8541  139.7206  164.8889 H       1  UNL1        0.1537
     14 C         138.3415  145.1271  165.7468 C.3     1  UNL1        0.0312
     15 C         139.3838  144.1947  165.2044 C.ar    1  UNL1       -0.0179
     16 C         140.4480  144.7136  164.2835 C.ar    1  UNL1        0.0106
     17 C         141.4904  143.7812  163.7411 C.ar    1  UNL1        0.0605
     18 C         142.5547  144.3001  162.8201 C.3     1  UNL1        0.0521
     19 N         141.4686  142.3299  164.1198 N.ar    1  UNL1       -0.2349
     20 C         140.4043  141.8111  165.0407 C.ar    1  UNL1        0.1315
     21 C         139.3620  142.7435  165.5830 C.ar    1  UNL1        0.0301
     22 N         140.7410  139.5314  170.5366 N.pl3   1  UNL1       -0.3301
     23 H         140.7238  138.7273  171.1043 H       1  UNL1        0.1469
     24 C         140.1633  140.8198  171.0431 C.3     1  UNL1        0.1115
     25 C         140.9633  142.0857  170.9566 C.3     1  UNL1        0.1667
     26 N         142.1996  142.2500  171.7900 N.3     1  UNL1       -0.3140
     27 H         142.3452  141.4110  172.3515 H       1  UNL1        0.1191
     28 H         142.0902  143.0561  172.4054 H       1  UNL1        0.1191
     29 C         140.5270  143.1872  170.0367 C.3     1  UNL1        0.4117
     30 F         140.0906  144.2888  169.1168 F       1  UNL1       -0.1685
     31 F         141.7408  142.9575  169.1859 F       1  UNL1       -0.1685
     32 F         139.3132  143.4169  170.8875 F       1  UNL1       -0.1685
@<TRIPOS>BOND
     1    14    15    1
     2    15    16   ar
     3    16    17   ar
     4    17    18    1
     5    17    19   ar
     6    19    20   ar
     7    20    12    1
     8    12     1    1
     9     1     2   ar
    10     2     3   ar
    11     3    22    1
    12    22    24    1
    13    24    25    1
    14    25    26    1
    15    25    29    1
    16    29    30    1
    17    29    31    1
    18    29    32    1
    19     3     4   ar
    20     4     5   ar
    21     5     6   ar
    22     6     7    1
    23     7     8   am
    24     7     9    2
    25    20    21   ar
    26    21    15   ar
    27     6     1   ar
    28    12    13    1
    29    22    23    1
    30    26    27    1
    31    26    28    1
    32     8    10    1
    33     8    11    1
@<TRIPOS>MOLECULE
*****
 32 33 0 0 0
SMALL
GASTEIGER

@<TRIPOS>ATOM
      1 C         139.5265  140.9123  165.7074 C.ar    1  UNL1        0.0730
      2 C         139.9569  140.8586  167.1434 C.ar    1  UNL1        0.0322
      3 C         139.2616  139.9365  168.1007 C.ar    1  UNL1        0.0654
      4 C         138.1360  139.0682  167.6221 C.ar    1  UNL1        0.1133
      5 N         137.7056  139.1220  166.1862 N.ar    1  UNL1       -0.2367
      6 C         138.4008  140.0440  165.2288 C.ar    1  UNL1        0.1476
      7 C         137.9704  140.0977  163.7929 C.2     1  UNL1        0.2617
      8 N         137.0038  141.1508  163.3386 N.am    1  UNL1       -0.3240
      9 O         138.5068  139.0983  162.8113 O.2     1  UNL1       -0.2687
     10 H         136.6517  141.8068  163.9829 H       1  UNL1        0.1453
     11 H         136.7213  141.1861  162.3962 H       1  UNL1        0.1453
     12 N         140.2217  141.8343  164.7501 N.pl3   1  UNL1       -0.2966
     13 H         139.6971  142.4628  164.2031 H       1  UNL1        0.1537
     14 C         144.5476  139.4536  163.1320 C.3     1  UNL1        0.0312
     15 C         143.8791  140.6085  163.8170 C.ar    1  UNL1       -0.0179
     16 C         144.7050  141.7279  164.3780 C.ar    1  UNL1        0.0106
     17 C         144.0365  142.8828  165.0630 C.ar    1  UNL1        0.0605
     18 C         144.8625  144.0023  165.6241 C.3     1  UNL1        0.0521
     19 N         142.5421  142.9183  165.1871 N.ar    1  UNL1       -0.2349
     20 C         141.7162  141.7989  164.6261 C.ar    1  UNL1        0.1315
     21 C         142.3847  140.6440  163.9410 C.ar    1  UNL1        0.0301
     22 N         139.6920  139.8828  169.5366 N.pl3   1  UNL1       -0.3301
     23 H         139.6204  139.0402  170.0408 H       1  UNL1        0.1469
     24 C         140.2314  141.1129  170.2044 C.3     1  UNL1        0.1115
     25 C         141.6987  141.2264  170.4948 C.3     1  UNL1        0.1667
     26 N         142.2499  140.7035  171.7882 N.3     1  UNL1       -0.3140
     27 H         141.4927  140.3075  172.3451 H       1  UNL1        0.1191
     28 H         142.6883  141.4665  172.3041 H       1  UNL1        0.1191
     29 C         142.6146  141.8627  169.4918 C.3     1  UNL1        0.4117
     30 F         143.5306  142.4991  168.4887 F       1  UNL1       -0.1685
     31 F         143.0151  140.5048  168.9961 F       1  UNL1       -0.1685
     32 F         142.2142  143.2205  169.9875 F       1  UNL1       -0.1685
@<TRIPOS>BOND
     1    14    15    1
     2    15    16   ar
     3    16    17   ar
     4    17    18    1
     5    17    19   ar
     6    19    20   ar
     7    20    12    1
     8    12     1    1
     9     1     2   ar
    10     2     3   ar
    11     3    22    1
    12    22    24    1
    13    24    25    1
    14    25    26    1
    15    25    29    1
    16    29    30    1
    17    29    31    1
    18    29    32    1
    19     3     4   ar
    20     4     5   ar
    21     5     6   ar
    22     6     7    1
    23     7     8   am
    24     7     9    2
    25    20    21   ar
    26    21    15   ar
    27     6     1   ar
    28    12    13    1
    29    22    23    1
    30    26    27    1
    31    26    28    1
    32     8    10    1
    33     8    11    1
@<TRIPOS>MOLECULE
*****
 32 33 0 0 0
SMALL
GASTEIGER

@<TRIPOS>ATOM
      1 C         142.7007  142.1152  164.9149 C.ar    1  UNL1        0.0730
      2 C         141.5541  143.0799  164.9841 C.ar    1  UNL1        0.0322
      3 C         141.4961  144.2447  164.0408 C.ar    1  UNL1        0.0654
      4 C         142.5846  144.4448  163.0283 C.ar    1  UNL1        0.1133
      5 N         143.7311  143.4801  162.9591 N.ar    1  UNL1       -0.2367
      6 C         143.7892  142.3153  163.9024 C.ar    1  UNL1        0.1476
      7 C         144.9357  141.3506  163.8332 C.2     1  UNL1        0.2617
      8 N         146.3096  141.8421  163.4858 N.am    1  UNL1       -0.3240
      9 O         144.7083  139.8942  164.1114 O.2     1  UNL1       -0.2687
     10 H         146.4588  142.7980  163.3031 H       1  UNL1        0.1453
     11 H         147.0621  141.2089  163.4403 H       1  UNL1        0.1453
     12 N         142.7587  140.9504  165.8582 N.pl3   1  UNL1       -0.2966
     13 H         143.5668  140.3895  165.8986 H       1  UNL1        0.1537
     14 C         140.4328  141.1788  170.4991 C.3     1  UNL1        0.0312
     15 C         140.4226  140.7543  169.0605 C.ar    1  UNL1       -0.0179
     16 C         139.2394  140.0197  168.5036 C.ar    1  UNL1        0.0106
     17 C         139.2292  139.5952  167.0649 C.ar    1  UNL1        0.0605
     18 C         138.0459  138.8605  166.5081 C.3     1  UNL1        0.0521
     19 N         140.4023  139.9055  166.1831 N.ar    1  UNL1       -0.2349
     20 C         141.5856  140.6401  166.7400 C.ar    1  UNL1        0.1315
     21 C         141.5957  141.0646  168.1787 C.ar    1  UNL1        0.0301
     22 N         140.3496  145.2094  164.1100 N.pl3   1  UNL1       -0.3301
     23 H         140.4781  146.1471  163.8388 H       1  UNL1        0.1469
     24 C         139.0071  144.7455  164.5923 C.3     1  UNL1        0.1115
     25 C         138.0954  143.9961  163.6665 C.3     1  UNL1        0.1667
     26 N         137.3931  144.7206  162.5565 N.3     1  UNL1       -0.3140
     27 H         137.6489  145.7077  162.5795 H       1  UNL1        0.1191
     28 H         136.3843  144.6279  162.6748 H       1  UNL1        0.1191
     29 C         137.8860  142.5222  163.8506 C.3     1  UNL1        0.4117
     30 F         137.6766  141.0483  164.0347 F       1  UNL1       -0.1685
     31 F         137.4519  142.4052  162.4195 F       1  UNL1       -0.1685
     32 F         138.3200  142.6393  165.2816 F       1  UNL1       -0.1685
@<TRIPOS>BOND
     1    14    15    1
     2    15    16   ar
     3    16    17   ar
     4    17    18    1
     5    17    19   ar
     6    19    20   ar
     7    20    12    1
     8    12     1    1
     9     1     2   ar
    10     2     3   ar
    11     3    22    1
    12    22    24    1
    13    24    25    1
    14    25    26    1
    15    25    29    1
    16    29    30    1
    17    29    31    1
    18    29    32    1
    19     3     4   ar
    20     4     5   ar
    21     5     6   ar
    22     6     7    1
    23     7     8   am
    24     7     9    2
    25    20    21   ar
    26    21    15   ar
    27     6     1   ar
    28    12    13    1
    29    22    23    1
    30    26    27    1
    31    26    28    1
    32     8    10    1
    33     8    11    1
@<TRIPOS>MOLECULE
*****
 32 33 0 0 0
SMALL
GASTEIGER

@<TRIPOS>ATOM
      1 C         140.4000  143.0912  163.6169 C.ar    1  UNL1        0.0730
      2 C         141.6300  142.5657  164.2959 C.ar    1  UNL1        0.0322
      3 C         142.8243  143.4550  164.4773 C.ar    1  UNL1        0.0654
      4 C         142.7887  144.8696  163.9798 C.ar    1  UNL1        0.1133
      5 N         141.5587  145.3950  163.3008 N.ar    1  UNL1       -0.2367
      6 C         140.3643  144.5059  163.1194 C.ar    1  UNL1        0.1476
      7 C         139.1343  145.0313  162.4404 C.2     1  UNL1        0.2617
      8 N         139.2586  146.0514  161.3478 N.am    1  UNL1       -0.3240
      9 O         137.7800  144.5367  162.8542 O.2     1  UNL1       -0.2687
     10 H         140.1475  146.3761  161.0762 H       1  UNL1        0.1453
     11 H         138.4513  146.3963  160.9021 H       1  UNL1        0.1453
     12 N         139.2056  142.2021  163.4355 N.pl3   1  UNL1       -0.2966
     13 H         138.4021  142.5438  162.9808 H       1  UNL1        0.1537
     14 C         137.7097  138.6445  166.9148 C.3     1  UNL1        0.0312
     15 C         138.4876  139.0134  165.6865 C.ar    1  UNL1       -0.0179
     16 C         139.2954  137.9726  164.9696 C.ar    1  UNL1        0.0106
     17 C         140.0733  138.3415  163.7413 C.ar    1  UNL1        0.0605
     18 C         140.8812  137.3006  163.0243 C.3     1  UNL1        0.0521
     19 N         140.0434  139.7513  163.2299 N.ar    1  UNL1       -0.2349
     20 C         139.2356  140.7922  163.9468 C.ar    1  UNL1        0.1315
     21 C         138.4577  140.4232  165.1751 C.ar    1  UNL1        0.0301
     22 N         144.0543  142.9295  165.1563 N.pl3   1  UNL1       -0.3301
     23 H         144.0848  142.8643  166.1382 H       1  UNL1        0.1469
     24 C         145.2379  142.5033  164.3392 C.3     1  UNL1        0.1115
     25 C         145.0316  141.8087  163.0258 C.3     1  UNL1        0.1667
     26 N         145.2795  142.5435  161.7417 N.3     1  UNL1       -0.3140
     27 H         145.5801  143.4962  161.9478 H       1  UNL1        0.1191
     28 H         144.4198  142.5694  161.1934 H       1  UNL1        0.1191
     29 C         144.5774  140.3795  162.9964 C.3     1  UNL1        0.4117
     30 F         144.1232  138.9501  162.9669 F       1  UNL1       -0.1685
     31 F         145.5806  140.0389  164.0583 F       1  UNL1       -0.1685
     32 F         143.5743  140.7201  161.9345 F       1  UNL1       -0.1685
@<TRIPOS>BOND
     1    14    15    1
     2    15    16   ar
     3    16    17   ar
     4    17    18    1
     5    17    19   ar
     6    19    20   ar
     7    20    12    1
     8    12     1    1
     9     1     2   ar
    10     2     3   ar
    11     3    22    1
    12    22    24    1
    13    24    25    1
    14    25    26    1
    15    25    29    1
    16    29    30    1
    17    29    31    1
    18    29    32    1
    19     3     4   ar
    20     4     5   ar
    21     5     6   ar
    22     6     7    1
    23     7     8   am
    24     7     9    2
    25    20    21   ar
    26    21    15   ar
    27     6     1   ar
    28    12    13    1
    29    22    23    1
    30    26    27    1
    31    26    28    1
    32     8    10    1
    33     8    11    1
@<TRIPOS>MOLECULE
*****
 32 33 0 0 0
SMALL
GASTEIGER

@<TRIPOS>ATOM
      1 C         140.2206  140.5980  167.1402 C.ar    1  UNL1        0.0730
      2 C         139.8767  140.1510  165.7503 C.ar    1  UNL1        0.0322
      3 C         138.7401  139.1975  165.5287 C.ar    1  UNL1        0.0654
      4 C         137.9475  138.6911  166.6971 C.ar    1  UNL1        0.1133
      5 N         138.2914  139.1380  168.0870 N.ar    1  UNL1       -0.2367
      6 C         139.4279  140.0915  168.3086 C.ar    1  UNL1        0.1476
      7 C         139.7718  140.5384  169.6986 C.2     1  UNL1        0.2617
      8 N         140.2222  139.5356  170.7190 N.am    1  UNL1       -0.3240
      9 O         139.6652  141.9884  170.0681 O.2     1  UNL1       -0.2687
     10 H         140.2922  138.5840  170.4765 H       1  UNL1        0.1453
     11 H         140.4479  139.8289  171.6313 H       1  UNL1        0.1453
     12 N         141.3572  141.5514  167.3618 N.pl3   1  UNL1       -0.2966
     13 H         141.5191  141.9245  168.2584 H       1  UNL1        0.1537
     14 C         142.7846  144.9797  163.7273 C.3     1  UNL1        0.0312
     15 C         142.9608  143.6507  164.4001 C.ar    1  UNL1       -0.0179
     16 C         144.0269  142.7068  163.9284 C.ar    1  UNL1        0.0106
     17 C         144.2031  141.3778  164.6013 C.ar    1  UNL1        0.0605
     18 C         145.2693  140.4339  164.1296 C.3     1  UNL1        0.0521
     19 N         143.3132  140.9927  165.7457 N.ar    1  UNL1       -0.2349
     20 C         142.2471  141.9365  166.2173 C.ar    1  UNL1        0.1315
     21 C         142.0709  143.2656  165.5445 C.ar    1  UNL1        0.0301
     22 N         138.3962  138.7506  164.1388 N.pl3   1  UNL1       -0.3301
     23 H         137.7168  139.2378  163.6189 H       1  UNL1        0.1469
     24 C         139.0875  137.5611  163.5408 C.3     1  UNL1        0.1115
     25 C         140.4852  137.6932  163.0126 C.3     1  UNL1        0.1667
     26 N         140.7287  137.7153  161.5326 N.3     1  UNL1       -0.3140
     27 H         139.8393  137.6308  161.0404 H       1  UNL1        0.1191
     28 H         141.3347  136.9360  161.2760 H       1  UNL1        0.1191
     29 C         141.6394  137.8030  163.9643 C.3     1  UNL1        0.4117
     30 F         142.7936  137.9129  164.9160 F       1  UNL1       -0.1685
     31 F         142.0506  139.0920  163.3167 F       1  UNL1       -0.1685
     32 F         141.2282  136.5140  164.6118 F       1  UNL1       -0.1685
@<TRIPOS>BOND
     1    14    15    1
     2    15    16   ar
     3    16    17   ar
     4    17    18    1
     5    17    19   ar
     6    19    20   ar
     7    20    12    1
     8    12     1    1
     9     1     2   ar
    10     2     3   ar
    11     3    22    1
    12    22    24    1
    13    24    25    1
    14    25    26    1
    15    25    29    1
    16    29    30    1
    17    29    31    1
    18    29    32    1
    19     3     4   ar
    20     4     5   ar
    21     5     6   ar
    22     6     7    1
    23     7     8   am
    24     7     9    2
    25    20    21   ar
    26    21    15   ar
    27     6     1   ar
    28    12    13    1
    29    22    23    1
    30    26    27    1
    31    26    28    1
    32     8    10    1
    33     8    11    1
