@<TRIPOS>MOLECULE
*****
 33 36 0 0 0
SMALL
GASTEIGER

@<TRIPOS>ATOM
      1 N         141.2748  139.1390  163.4897 N.am    1  UNL1       -0.2555
      2 C         142.1150  140.0623  164.3213 C.3     1  UNL1        0.1197
      3 C         141.7119  140.3779  165.7312 C.3     1  UNL1        0.1160
      4 N         140.4685  139.7701  166.3096 N.am    1  UNL1       -0.2659
      5 C         140.0653  140.0856  167.7195 C.2     1  UNL1        0.2516
      6 O         138.8219  139.4778  168.2979 O.2     1  UNL1       -0.2698
      7 C         139.6282  138.8467  165.4780 C.3     1  UNL1        0.1799
      8 C         140.0314  138.5312  164.0681 C.2     1  UNL1        0.2497
      9 O         139.1912  137.6078  163.2365 O.2     1  UNL1       -0.2727
     10 C         140.9055  141.0089  168.5510 C.ar    1  UNL1        0.0811
     11 C         140.4383  142.4082  168.8223 C.ar    1  UNL1        0.0091
     12 C         141.2786  143.3316  169.6539 C.ar    1  UNL1        0.0299
     13 C         142.5860  142.8556  170.2141 C.ar    1  UNL1        0.1424
     14 F         143.4262  143.7789  171.0456 F       1  UNL1       -0.2041
     15 C         143.0533  141.4562  169.9428 C.ar    1  UNL1        0.0594
     16 C         142.2131  140.5329  169.1113 C.ar    1  UNL1        0.1467
     17 F         142.6803  139.1336  168.8400 F       1  UNL1       -0.2039
     18 C         142.4843  138.1923  159.2600 C.ar    1  UNL1        0.1386
     19 C         143.1951  137.5382  160.4075 C.ar    1  UNL1        0.0382
     20 C         142.7919  137.8538  161.8174 C.ar    1  UNL1        0.0180
     21 C         141.6780  138.8234  162.0798 C.ar    1  UNL1        0.0541
     22 C         140.9671  139.4775  160.9322 C.ar    1  UNL1        0.0180
     23 C         141.3703  139.1619  159.5223 C.ar    1  UNL1        0.0382
     24 O         142.8875  137.8767  157.8500 O.3     1  UNL1       -0.4754
     25 C         142.0257  136.9860  157.0051 C.3     1  UNL1        0.2068
     26 C         142.6560  136.0560  156.0111 C.3     1  UNL1        0.0646
     27 C         142.3394  134.5903  156.0498 C.3     1  UNL1        0.0759
     28 C         143.3321  131.9478  154.4125 C.3     1  UNL1        0.0173
     29 C         143.8357  132.3955  155.7526 C.3     1  UNL1        0.0576
     30 C         144.8841  131.7071  156.5754 C.3     1  UNL1        0.0174
     31 C         145.0758  132.4963  157.8365 C.3     1  UNL1        0.0187
     32 C         144.1458  133.6724  157.7931 C.3     1  UNL1        0.0721
     33 N         143.3794  133.6101  156.5052 N.3     1  UNL1       -0.2738
@<TRIPOS>BOND
     1    29    28    1
     2    29    30    1
     3    30    31    1
     4    31    32    1
     5    32    33    1
     6    33    27    1
     7    27    26    1
     8    26    25    1
     9    25    24    1
    10    24    18    1
    11    18    19   ar
    12    19    20   ar
    13    20    21   ar
    14    21     1    1
    15     1     2    1
    16     2     3    1
    17     3     4    1
    18     4     5   am
    19     5     6    2
    20     5    10    1
    21    10    11   ar
    22    11    12   ar
    23    12    13   ar
    24    13    14    1
    25    13    15   ar
    26    15    16   ar
    27    16    17    1
    28     4     7    1
    29     7     8    1
    30     8     9    2
    31    21    22   ar
    32    22    23   ar
    33    33    29    1
    34    23    18   ar
    35     8     1   am
    36    16    10   ar
@<TRIPOS>MOLECULE
*****
 33 36 0 0 0
SMALL
GASTEIGER

@<TRIPOS>ATOM
      1 N         141.3467  139.0586  163.5730 N.am    1  UNL1       -0.2555
      2 C         142.1698  139.9958  164.4062 C.3     1  UNL1        0.1197
      3 C         141.7441  140.3252  165.8064 C.3     1  UNL1        0.1160
      4 N         140.4955  139.7174  166.3733 N.am    1  UNL1       -0.2659
      5 C         140.0698  140.0468  167.7734 C.2     1  UNL1        0.2516
      6 O         138.8211  139.4391  168.3403 O.2     1  UNL1       -0.2698
      7 C         139.6724  138.7802  165.5400 C.3     1  UNL1        0.1799
      8 C         140.0980  138.4508  164.1399 C.2     1  UNL1        0.2497
      9 O         139.2750  137.5136  163.3067 O.2     1  UNL1       -0.2727
     10 C         140.8929  140.9840  168.6065 C.ar    1  UNL1        0.0811
     11 C         140.4052  142.3777  168.8709 C.ar    1  UNL1        0.0091
     12 C         141.2283  143.3149  169.7042 C.ar    1  UNL1        0.0299
     13 C         142.5391  142.8584  170.2729 C.ar    1  UNL1        0.1424
     14 F         143.3621  143.7956  171.1061 F       1  UNL1       -0.2041
     15 C         143.0268  141.4648  170.0085 C.ar    1  UNL1        0.0594
     16 C         142.2037  140.5276  169.1753 C.ar    1  UNL1        0.1467
     17 F         142.6914  139.1340  168.9109 F       1  UNL1       -0.2039
     18 C         142.6234  138.0703  159.3726 C.ar    1  UNL1        0.1386
     19 C         141.3662  138.8532  159.6097 C.ar    1  UNL1        0.0382
     20 C         140.9406  139.1826  161.0098 C.ar    1  UNL1        0.0180
     21 C         141.7723  138.7291  162.1728 C.ar    1  UNL1        0.0541
     22 C         143.0296  137.9462  161.9357 C.ar    1  UNL1        0.0180
     23 C         143.4552  137.6168  160.5356 C.ar    1  UNL1        0.0382
     24 O         143.0491  137.7409  157.9725 O.3     1  UNL1       -0.4754
     25 C         142.1264  138.0191  156.8230 C.3     1  UNL1        0.2068
     26 C         142.3651  137.3651  155.4943 C.3     1  UNL1        0.0646
     27 C         143.3264  136.2189  155.3845 C.3     1  UNL1        0.0759
     28 C         143.5845  134.0307  157.7917 C.3     1  UNL1        0.0173
     29 C         142.9317  133.8041  156.4603 C.3     1  UNL1        0.0576
     30 C         142.2829  132.5318  156.0018 C.3     1  UNL1        0.0174
     31 C         141.7632  132.7513  154.6118 C.3     1  UNL1        0.0187
     32 C         142.0909  134.1592  154.2115 C.3     1  UNL1        0.0721
     33 N         142.8130  134.8099  155.3539 N.3     1  UNL1       -0.2738
@<TRIPOS>BOND
     1    29    28    1
     2    29    30    1
     3    30    31    1
     4    31    32    1
     5    32    33    1
     6    33    27    1
     7    27    26    1
     8    26    25    1
     9    25    24    1
    10    24    18    1
    11    18    19   ar
    12    19    20   ar
    13    20    21   ar
    14    21     1    1
    15     1     2    1
    16     2     3    1
    17     3     4    1
    18     4     5   am
    19     5     6    2
    20     5    10    1
    21    10    11   ar
    22    11    12   ar
    23    12    13   ar
    24    13    14    1
    25    13    15   ar
    26    15    16   ar
    27    16    17    1
    28     4     7    1
    29     7     8    1
    30     8     9    2
    31    21    22   ar
    32    22    23   ar
    33    33    29    1
    34    23    18   ar
    35     8     1   am
    36    16    10   ar
@<TRIPOS>MOLECULE
*****
 33 36 0 0 0
SMALL
GASTEIGER

@<TRIPOS>ATOM
      1 N         142.4789  140.8188  163.0843 N.am    1  UNL1       -0.2555
      2 C         141.6586  141.6728  164.0051 C.3     1  UNL1        0.1197
      3 C         141.6389  141.3842  165.4770 C.3     1  UNL1        0.1160
      4 N         142.4396  140.2416  166.0281 N.am    1  UNL1       -0.2659
      5 C         142.4199  139.9530  167.4999 C.2     1  UNL1        0.2516
      6 O         143.2206  138.8105  168.0509 O.2     1  UNL1       -0.2698
      7 C         143.2599  139.3877  165.1072 C.3     1  UNL1        0.1799
      8 C         143.2795  139.6763  163.6354 C.2     1  UNL1        0.2497
      9 O         144.0999  138.8224  162.7145 O.2     1  UNL1       -0.2727
     10 C         141.5996  140.8070  168.4206 C.ar    1  UNL1        0.0811
     11 C         140.2605  140.3261  168.8954 C.ar    1  UNL1        0.0091
     12 C         139.4402  141.1801  169.8163 C.ar    1  UNL1        0.0299
     13 C         139.9590  142.5149  170.2623 C.ar    1  UNL1        0.1424
     14 F         139.1388  143.3688  171.1831 F       1  UNL1       -0.2041
     15 C         141.2982  142.9958  169.7875 C.ar    1  UNL1        0.0594
     16 C         142.1185  142.1419  168.8667 C.ar    1  UNL1        0.1467
     17 F         143.4576  142.6228  168.3919 F       1  UNL1       -0.2039
     18 C         142.5380  141.6846  158.6688 C.ar    1  UNL1        0.1386
     19 C         143.4088  142.4752  159.5998 C.ar    1  UNL1        0.0382
     20 C         143.3890  142.1866  161.0716 C.ar    1  UNL1        0.0180
     21 C         142.4986  141.1074  161.6124 C.ar    1  UNL1        0.0541
     22 C         141.6279  140.3169  160.6815 C.ar    1  UNL1        0.0180
     23 C         141.6476  140.6055  159.2096 C.ar    1  UNL1        0.0382
     24 O         142.5577  141.9732  157.1969 O.3     1  UNL1       -0.4754
     25 C         141.8537  143.1843  156.6606 C.3     1  UNL1        0.2068
     26 C         140.3570  143.1995  156.5620 C.3     1  UNL1        0.0646
     27 C         139.5510  144.0318  157.5146 C.3     1  UNL1        0.0759
     28 C         141.0348  145.2518  160.1527 C.3     1  UNL1        0.0173
     29 C         140.0350  144.1336  160.1414 C.3     1  UNL1        0.0576
     30 C         139.5418  143.3799  161.3408 C.3     1  UNL1        0.0174
     31 C         138.5548  142.3533  160.8695 C.3     1  UNL1        0.0187
     32 C         138.4382  142.4725  159.3789 C.3     1  UNL1        0.0721
     33 N         139.3530  143.5729  158.9289 N.3     1  UNL1       -0.2738
@<TRIPOS>BOND
     1    29    28    1
     2    29    30    1
     3    30    31    1
     4    31    32    1
     5    32    33    1
     6    33    27    1
     7    27    26    1
     8    26    25    1
     9    25    24    1
    10    24    18    1
    11    18    19   ar
    12    19    20   ar
    13    20    21   ar
    14    21     1    1
    15     1     2    1
    16     2     3    1
    17     3     4    1
    18     4     5   am
    19     5     6    2
    20     5    10    1
    21    10    11   ar
    22    11    12   ar
    23    12    13   ar
    24    13    14    1
    25    13    15   ar
    26    15    16   ar
    27    16    17    1
    28     4     7    1
    29     7     8    1
    30     8     9    2
    31    21    22   ar
    32    22    23   ar
    33    33    29    1
    34    23    18   ar
    35     8     1   am
    36    16    10   ar
@<TRIPOS>MOLECULE
*****
 33 36 0 0 0
SMALL
GASTEIGER

@<TRIPOS>ATOM
      1 N         140.0416  140.8558  163.2402 N.am    1  UNL1       -0.2555
      2 C         140.9546  141.6908  164.0881 C.3     1  UNL1        0.1197
      3 C         140.9189  141.5601  165.5820 C.3     1  UNL1        0.1160
      4 N         139.9702  140.5944  166.2279 N.am    1  UNL1       -0.2659
      5 C         139.9345  140.4637  167.7217 C.2     1  UNL1        0.2516
      6 O         138.9858  139.4979  168.3676 O.2     1  UNL1       -0.2698
      7 C         139.0571  139.7593  165.3799 C.3     1  UNL1        0.1799
      8 C         139.0929  139.8900  163.8861 C.2     1  UNL1        0.2497
      9 O         138.1798  139.0549  163.0380 O.2     1  UNL1       -0.2727
     10 C         140.8475  141.2987  168.5697 C.ar    1  UNL1        0.0811
     11 C         140.3797  142.6232  169.0958 C.ar    1  UNL1        0.0091
     12 C         141.2928  143.4582  169.9438 C.ar    1  UNL1        0.0299
     13 C         142.6737  142.9688  170.2656 C.ar    1  UNL1        0.1424
     14 F         143.5867  143.8039  171.1135 F       1  UNL1       -0.2041
     15 C         143.1415  141.6443  169.7394 C.ar    1  UNL1        0.0594
     16 C         142.2285  140.8093  168.8915 C.ar    1  UNL1        0.1467
     17 F         142.6963  139.4848  168.3653 F       1  UNL1       -0.2039
     18 C         140.1485  141.2479  158.7586 C.ar    1  UNL1        0.1386
     19 C         139.1539  142.0373  159.5569 C.ar    1  UNL1        0.0382
     20 C         139.1183  141.9066  161.0508 C.ar    1  UNL1        0.0180
     21 C         140.0773  140.9865  161.7462 C.ar    1  UNL1        0.0541
     22 C         141.0719  140.1971  160.9479 C.ar    1  UNL1        0.0180
     23 C         141.1075  140.3278  159.4540 C.ar    1  UNL1        0.0382
     24 O         140.1842  141.3786  157.2646 O.3     1  UNL1       -0.4754
     25 C         140.4102  142.7208  156.6344 C.3     1  UNL1        0.2068
     26 C         141.7925  143.3010  156.5806 C.3     1  UNL1        0.0646
     27 C         142.2039  144.3517  157.5689 C.3     1  UNL1        0.0759
     28 C         140.6324  145.3788  160.2380 C.3     1  UNL1        0.0173
     29 C         141.8012  144.4391  160.2099 C.3     1  UNL1        0.0576
     30 C         142.4529  143.8066  161.4037 C.3     1  UNL1        0.0174
     31 C         143.5781  142.9435  160.9146 C.3     1  UNL1        0.0187
     32 C         143.6217  143.0426  159.4185 C.3     1  UNL1        0.0721
     33 N         142.5236  143.9670  158.9830 N.3     1  UNL1       -0.2738
@<TRIPOS>BOND
     1    29    28    1
     2    29    30    1
     3    30    31    1
     4    31    32    1
     5    32    33    1
     6    33    27    1
     7    27    26    1
     8    26    25    1
     9    25    24    1
    10    24    18    1
    11    18    19   ar
    12    19    20   ar
    13    20    21   ar
    14    21     1    1
    15     1     2    1
    16     2     3    1
    17     3     4    1
    18     4     5   am
    19     5     6    2
    20     5    10    1
    21    10    11   ar
    22    11    12   ar
    23    12    13   ar
    24    13    14    1
    25    13    15   ar
    26    15    16   ar
    27    16    17    1
    28     4     7    1
    29     7     8    1
    30     8     9    2
    31    21    22   ar
    32    22    23   ar
    33    33    29    1
    34    23    18   ar
    35     8     1   am
    36    16    10   ar
@<TRIPOS>MOLECULE
*****
 33 36 0 0 0
SMALL
GASTEIGER

@<TRIPOS>ATOM
      1 N         141.2848  139.6737  162.9736 N.am    1  UNL1       -0.2555
      2 C         140.5286  140.5813  163.8978 C.3     1  UNL1        0.1197
      3 C         140.8399  140.5860  165.3652 C.3     1  UNL1        0.1160
      4 N         141.9075  139.6830  165.9082 N.am    1  UNL1       -0.2659
      5 C         142.2188  139.6876  167.3755 C.2     1  UNL1        0.2516
      6 O         143.2864  138.7846  167.9186 O.2     1  UNL1       -0.2698
      7 C         142.6637  138.7753  164.9839 C.3     1  UNL1        0.1799
      8 C         142.3524  138.7707  163.5166 C.2     1  UNL1        0.2497
      9 O         143.1086  137.8630  162.5923 O.2     1  UNL1       -0.2727
     10 C         141.4626  140.5952  168.2998 C.ar    1  UNL1        0.0811
     11 C         140.1997  140.1173  168.9531 C.ar    1  UNL1        0.0091
     12 C         139.4435  141.0250  169.8774 C.ar    1  UNL1        0.0299
     13 C         139.9501  142.4106  170.1483 C.ar    1  UNL1        0.1424
     14 F         139.1939  143.3182  171.0725 F       1  UNL1       -0.2041
     15 C         141.2129  142.8885  169.4950 C.ar    1  UNL1        0.0594
     16 C         141.9692  141.9809  168.5708 C.ar    1  UNL1        0.1467
     17 F         143.2320  142.4589  167.9175 F       1  UNL1       -0.2039
     18 C         140.3508  139.6596  158.5716 C.ar    1  UNL1        0.1386
     19 C         139.5837  138.7695  159.5039 C.ar    1  UNL1        0.0382
     20 C         139.8950  138.7742  160.9712 C.ar    1  UNL1        0.0180
     21 C         140.9735  139.6690  161.5062 C.ar    1  UNL1        0.0541
     22 C         141.7407  140.5590  160.5739 C.ar    1  UNL1        0.0180
     23 C         141.4293  140.5543  159.1066 C.ar    1  UNL1        0.0382
     24 O         140.0395  139.6549  157.1042 O.3     1  UNL1       -0.4754
     25 C         139.0168  140.6028  156.5515 C.3     1  UNL1        0.2068
     26 C         137.9340  141.1395  157.4401 C.3     1  UNL1        0.0646
     27 C         137.9648  142.5741  157.8770 C.3     1  UNL1        0.0759
     28 C         140.4446  144.6776  158.1512 C.3     1  UNL1        0.0173
     29 C         139.8005  143.9225  159.2759 C.3     1  UNL1        0.0576
     30 C         140.1832  144.0017  160.7241 C.3     1  UNL1        0.0174
     31 C         139.2798  143.0838  161.4931 C.3     1  UNL1        0.0187
     32 C         138.3388  142.4373  160.5202 C.3     1  UNL1        0.0721
     33 N         138.6607  142.9556  159.1499 N.3     1  UNL1       -0.2738
@<TRIPOS>BOND
     1    29    28    1
     2    29    30    1
     3    30    31    1
     4    31    32    1
     5    32    33    1
     6    33    27    1
     7    27    26    1
     8    26    25    1
     9    25    24    1
    10    24    18    1
    11    18    19   ar
    12    19    20   ar
    13    20    21   ar
    14    21     1    1
    15     1     2    1
    16     2     3    1
    17     3     4    1
    18     4     5   am
    19     5     6    2
    20     5    10    1
    21    10    11   ar
    22    11    12   ar
    23    12    13   ar
    24    13    14    1
    25    13    15   ar
    26    15    16   ar
    27    16    17    1
    28     4     7    1
    29     7     8    1
    30     8     9    2
    31    21    22   ar
    32    22    23   ar
    33    33    29    1
    34    23    18   ar
    35     8     1   am
    36    16    10   ar
@<TRIPOS>MOLECULE
*****
 33 36 0 0 0
SMALL
GASTEIGER

@<TRIPOS>ATOM
      1 N         141.0974  139.7410  158.6837 N.am    1  UNL1       -0.2555
      2 C         140.6677  138.4077  158.1474 C.3     1  UNL1        0.1197
      3 C         141.5706  137.6443  157.2242 C.3     1  UNL1        0.1160
      4 N         142.9031  138.2143  156.8375 N.am    1  UNL1       -0.2659
      5 C         143.8059  137.4509  155.9143 C.2     1  UNL1        0.2516
      6 O         145.1384  138.0209  155.5276 O.2     1  UNL1       -0.2698
      7 C         143.3327  139.5476  157.3738 C.3     1  UNL1        0.1799
      8 C         142.4299  140.3109  158.2970 C.2     1  UNL1        0.2497
      9 O         142.8596  141.6443  158.8333 O.2     1  UNL1       -0.2727
     10 C         143.3762  136.1177  155.3780 C.ar    1  UNL1        0.0811
     11 C         143.7619  134.8598  156.0984 C.ar    1  UNL1        0.0091
     12 C         143.3322  133.5264  155.5620 C.ar    1  UNL1        0.0299
     13 C         142.5168  133.4510  154.3053 C.ar    1  UNL1        0.1424
     14 F         142.0872  132.1178  153.7690 F       1  UNL1       -0.2041
     15 C         142.1312  134.7089  153.5849 C.ar    1  UNL1        0.0594
     16 C         142.5608  136.0422  154.1212 C.ar    1  UNL1        0.1467
     17 F         142.1752  137.3001  153.4008 F       1  UNL1       -0.2039
     18 C         138.3890  142.0311  161.4532 C.ar    1  UNL1        0.1386
     19 C         139.2453  140.9222  161.9890 C.ar    1  UNL1        0.0382
     20 C         140.1481  140.1589  161.0658 C.ar    1  UNL1        0.0180
     21 C         140.1946  140.5044  159.6069 C.ar    1  UNL1        0.0541
     22 C         139.3382  141.6132  159.0711 C.ar    1  UNL1        0.0180
     23 C         138.4355  142.3766  159.9943 C.ar    1  UNL1        0.0382
     24 O         137.4862  142.7945  162.3764 O.3     1  UNL1       -0.4754
     25 C         137.7301  142.7673  163.8561 C.3     1  UNL1        0.2068
     26 C         137.9072  144.0515  164.6109 C.3     1  UNL1        0.0646
     27 C         139.1825  144.8298  164.4779 C.3     1  UNL1        0.0759
     28 C         141.8148  143.0525  163.7283 C.3     1  UNL1        0.0173
     29 C         141.1262  144.0324  162.8253 C.3     1  UNL1        0.0576
     30 C         141.5266  144.3674  161.4191 C.3     1  UNL1        0.0174
     31 C         140.5642  145.3914  160.8945 C.3     1  UNL1        0.0187
     32 C         139.5690  145.6892  161.9765 C.3     1  UNL1        0.0721
     33 N         139.9163  144.8493  163.1698 N.3     1  UNL1       -0.2738
@<TRIPOS>BOND
     1    29    28    1
     2    29    30    1
     3    30    31    1
     4    31    32    1
     5    32    33    1
     6    33    27    1
     7    27    26    1
     8    26    25    1
     9    25    24    1
    10    24    18    1
    11    18    19   ar
    12    19    20   ar
    13    20    21   ar
    14    21     1    1
    15     1     2    1
    16     2     3    1
    17     3     4    1
    18     4     5   am
    19     5     6    2
    20     5    10    1
    21    10    11   ar
    22    11    12   ar
    23    12    13   ar
    24    13    14    1
    25    13    15   ar
    26    15    16   ar
    27    16    17    1
    28     4     7    1
    29     7     8    1
    30     8     9    2
    31    21    22   ar
    32    22    23   ar
    33    33    29    1
    34    23    18   ar
    35     8     1   am
    36    16    10   ar
@<TRIPOS>MOLECULE
*****
 33 36 0 0 0
SMALL
GASTEIGER

@<TRIPOS>ATOM
      1 N         140.9796  139.6834  158.5700 N.am    1  UNL1       -0.2555
      2 C         140.3435  138.4478  158.0056 C.3     1  UNL1        0.1197
      3 C         141.1415  137.5251  157.1328 C.3     1  UNL1        0.1160
      4 N         142.5757  137.8382  156.8243 N.am    1  UNL1       -0.2659
      5 C         143.3738  136.9156  155.9515 C.2     1  UNL1        0.2516
      6 O         144.8080  137.2286  155.6431 O.2     1  UNL1       -0.2698
      7 C         143.2118  139.0739  157.3887 C.3     1  UNL1        0.1799
      8 C         142.4137  139.9965  158.2615 C.2     1  UNL1        0.2497
      9 O         143.0499  141.2322  158.8260 O.2     1  UNL1       -0.2727
     10 C         142.7377  135.6799  155.3872 C.ar    1  UNL1        0.0811
     11 C         142.2365  135.6732  153.9734 C.ar    1  UNL1        0.0091
     12 C         141.6003  134.4375  153.4091 C.ar    1  UNL1        0.0299
     13 C         141.4654  133.2086  154.2585 C.ar    1  UNL1        0.1424
     14 F         140.8293  131.9730  153.6941 F       1  UNL1       -0.2041
     15 C         141.9666  133.2153  155.6723 C.ar    1  UNL1        0.0594
     16 C         142.6027  134.4509  156.2366 C.ar    1  UNL1        0.1467
     17 F         143.1039  134.4577  157.6504 F       1  UNL1       -0.2039
     18 C         138.5854  142.4515  161.1884 C.ar    1  UNL1        0.1386
     19 C         138.9030  142.8432  159.7757 C.ar    1  UNL1        0.0382
     20 C         139.7010  141.9205  158.9030 C.ar    1  UNL1        0.0180
     21 C         140.1815  140.6061  159.4429 C.ar    1  UNL1        0.0541
     22 C         139.8639  140.2144  160.8555 C.ar    1  UNL1        0.0180
     23 C         139.0659  141.1371  161.7283 C.ar    1  UNL1        0.0382
     24 O         137.7874  143.3742  162.0613 O.3     1  UNL1       -0.4754
     25 C         137.4117  142.9537  163.4512 C.3     1  UNL1        0.2068
     26 C         138.0042  143.6602  164.6344 C.3     1  UNL1        0.0646
     27 C         138.9341  144.8188  164.4278 C.3     1  UNL1        0.0759
     28 C         140.1141  145.9328  161.5965 C.3     1  UNL1        0.0173
     29 C         140.8593  145.0970  162.5946 C.3     1  UNL1        0.0576
     30 C         142.2779  144.6266  162.4664 C.3     1  UNL1        0.0174
     31 C         142.6123  143.8238  163.6887 C.3     1  UNL1        0.0187
     32 C         141.4003  143.7981  164.5721 C.3     1  UNL1        0.0721
     33 N         140.3170  144.5850  163.8960 N.3     1  UNL1       -0.2738
@<TRIPOS>BOND
     1    29    28    1
     2    29    30    1
     3    30    31    1
     4    31    32    1
     5    32    33    1
     6    33    27    1
     7    27    26    1
     8    26    25    1
     9    25    24    1
    10    24    18    1
    11    18    19   ar
    12    19    20   ar
    13    20    21   ar
    14    21     1    1
    15     1     2    1
    16     2     3    1
    17     3     4    1
    18     4     5   am
    19     5     6    2
    20     5    10    1
    21    10    11   ar
    22    11    12   ar
    23    12    13   ar
    24    13    14    1
    25    13    15   ar
    26    15    16   ar
    27    16    17    1
    28     4     7    1
    29     7     8    1
    30     8     9    2
    31    21    22   ar
    32    22    23   ar
    33    33    29    1
    34    23    18   ar
    35     8     1   am
    36    16    10   ar
@<TRIPOS>MOLECULE
*****
 33 36 0 0 0
SMALL
GASTEIGER

@<TRIPOS>ATOM
      1 N         141.8096  140.1032  159.1066 N.am    1  UNL1       -0.2555
      2 C         141.1792  138.7596  158.8888 C.3     1  UNL1        0.1197
      3 C         141.7887  137.7939  157.9161 C.3     1  UNL1        0.1160
      4 N         143.0286  138.1718  157.1612 N.am    1  UNL1       -0.2659
      5 C         143.6381  137.2062  156.1886 C.2     1  UNL1        0.2516
      6 O         144.8779  137.5841  155.4337 O.2     1  UNL1       -0.2698
      7 C         143.6590  139.5155  157.3790 C.3     1  UNL1        0.1799
      8 C         143.0495  140.4811  158.3517 C.2     1  UNL1        0.2497
      9 O         143.6799  141.8247  158.5695 O.2     1  UNL1       -0.2727
     10 C         143.0076  135.8627  155.9709 C.ar    1  UNL1        0.0811
     11 C         143.4194  134.6949  156.8174 C.ar    1  UNL1        0.0091
     12 C         142.7890  133.3513  156.5996 C.ar    1  UNL1        0.0299
     13 C         141.7467  133.1756  155.5353 C.ar    1  UNL1        0.1424
     14 F         141.1163  131.8321  155.3176 F       1  UNL1       -0.2041
     15 C         141.3349  134.3434  154.6887 C.ar    1  UNL1        0.0594
     16 C         141.9654  135.6869  154.9065 C.ar    1  UNL1        0.1467
     17 F         141.5536  136.8547  154.0599 F       1  UNL1       -0.2039
     18 C         139.9812  143.0002  162.0244 C.ar    1  UNL1        0.1386
     19 C         139.5928  143.0485  160.5764 C.ar    1  UNL1        0.0382
     20 C         140.2023  142.0829  159.6038 C.ar    1  UNL1        0.0180
     21 C         141.2002  141.0689  160.0792 C.ar    1  UNL1        0.0541
     22 C         141.5886  141.0205  161.5272 C.ar    1  UNL1        0.0180
     23 C         140.9791  141.9862  162.4998 C.ar    1  UNL1        0.0382
     24 O         139.3717  143.9659  162.9971 O.3     1  UNL1       -0.4754
     25 C         138.8819  143.4802  164.3290 C.3     1  UNL1        0.2068
     26 C         137.7864  142.4578  164.3980 C.3     1  UNL1        0.0646
     27 C         138.1149  141.0258  164.7000 C.3     1  UNL1        0.0759
     28 C         139.4035  138.0344  164.9022 C.3     1  UNL1        0.0173
     29 C         138.7901  138.6494  163.6793 C.3     1  UNL1        0.0576
     30 C         138.6613  137.9973  162.3346 C.3     1  UNL1        0.0174
     31 C         137.9893  138.9694  161.4105 C.3     1  UNL1        0.0187
     32 C         137.7029  140.2221  162.1842 C.3     1  UNL1        0.0721
     33 N         138.1978  140.0244  163.5863 N.3     1  UNL1       -0.2738
@<TRIPOS>BOND
     1    29    28    1
     2    29    30    1
     3    30    31    1
     4    31    32    1
     5    32    33    1
     6    33    27    1
     7    27    26    1
     8    26    25    1
     9    25    24    1
    10    24    18    1
    11    18    19   ar
    12    19    20   ar
    13    20    21   ar
    14    21     1    1
    15     1     2    1
    16     2     3    1
    17     3     4    1
    18     4     5   am
    19     5     6    2
    20     5    10    1
    21    10    11   ar
    22    11    12   ar
    23    12    13   ar
    24    13    14    1
    25    13    15   ar
    26    15    16   ar
    27    16    17    1
    28     4     7    1
    29     7     8    1
    30     8     9    2
    31    21    22   ar
    32    22    23   ar
    33    33    29    1
    34    23    18   ar
    35     8     1   am
    36    16    10   ar
@<TRIPOS>MOLECULE
*****
 33 36 0 0 0
SMALL
GASTEIGER

@<TRIPOS>ATOM
      1 N         142.6455  140.6906  163.1200 N.am    1  UNL1       -0.2555
      2 C         141.8289  141.5712  164.0187 C.3     1  UNL1        0.1197
      3 C         141.7815  141.2998  165.4933 C.3     1  UNL1        0.1160
      4 N         142.5506  140.1479  166.0690 N.am    1  UNL1       -0.2659
      5 C         142.5032  139.8765  167.5434 C.2     1  UNL1        0.2516
      6 O         143.2724  138.7246  168.1191 O.2     1  UNL1       -0.2698
      7 C         143.3672  139.2673  165.1701 C.3     1  UNL1        0.1799
      8 C         143.4146  139.5387  163.6957 C.2     1  UNL1        0.2497
      9 O         144.2313  138.6581  162.7968 O.2     1  UNL1       -0.2727
     10 C         141.6866  140.7570  168.4422 C.ar    1  UNL1        0.0811
     11 C         142.3077  141.9693  169.0704 C.ar    1  UNL1        0.0091
     12 C         141.4910  142.8499  169.9692 C.ar    1  UNL1        0.0299
     13 C         140.0534  142.5181  170.2397 C.ar    1  UNL1        0.1424
     14 F         139.2368  143.3987  171.1384 F       1  UNL1       -0.2041
     15 C         139.4324  141.3058  169.6114 C.ar    1  UNL1        0.0594
     16 C         140.2490  140.4253  168.7127 C.ar    1  UNL1        0.1467
     17 F         139.6279  139.2130  168.0844 F       1  UNL1       -0.2039
     18 C         142.7877  141.5046  158.6965 C.ar    1  UNL1        0.1386
     19 C         141.7772  140.5444  159.2502 C.ar    1  UNL1        0.0382
     20 C         141.7298  140.2731  160.7247 C.ar    1  UNL1        0.0180
     21 C         142.6929  140.9620  161.6454 C.ar    1  UNL1        0.0541
     22 C         143.7034  141.9223  161.0917 C.ar    1  UNL1        0.0180
     23 C         143.7508  142.1936  159.6172 C.ar    1  UNL1        0.0382
     24 O         142.8351  141.7760  157.2220 O.3     1  UNL1       -0.4754
     25 C         142.1640  142.9948  156.6617 C.3     1  UNL1        0.2068
     26 C         140.6703  143.1213  156.7181 C.3     1  UNL1        0.0646
     27 C         140.0391  144.1818  157.5706 C.3     1  UNL1        0.0759
     28 C         138.5147  142.3949  159.8362 C.3     1  UNL1        0.0173
     29 C         139.6052  143.3937  160.0876 C.3     1  UNL1        0.0576
     30 C         140.1864  143.7465  161.4247 C.3     1  UNL1        0.0174
     31 C         141.2464  144.7859  161.2097 C.3     1  UNL1        0.0187
     32 C         141.3202  145.0755  159.7397 C.3     1  UNL1        0.0721
     33 N         140.3059  144.2150  159.0463 N.3     1  UNL1       -0.2738
@<TRIPOS>BOND
     1    29    28    1
     2    29    30    1
     3    30    31    1
     4    31    32    1
     5    32    33    1
     6    33    27    1
     7    27    26    1
     8    26    25    1
     9    25    24    1
    10    24    18    1
    11    18    19   ar
    12    19    20   ar
    13    20    21   ar
    14    21     1    1
    15     1     2    1
    16     2     3    1
    17     3     4    1
    18     4     5   am
    19     5     6    2
    20     5    10    1
    21    10    11   ar
    22    11    12   ar
    23    12    13   ar
    24    13    14    1
    25    13    15   ar
    26    15    16   ar
    27    16    17    1
    28     4     7    1
    29     7     8    1
    30     8     9    2
    31    21    22   ar
    32    22    23   ar
    33    33    29    1
    34    23    18   ar
    35     8     1   am
    36    16    10   ar
