@<TRIPOS>MOLECULE
*****
 29 33 0 0 0
SMALL
GASTEIGER

@<TRIPOS>ATOM
      1 C         139.7013  141.1701  166.2167 C.ar    1  UNL1        0.0213
      2 C         138.7537  140.1880  165.5943 C.ar    1  UNL1        0.1006
      3 N         138.4046  140.3011  164.1400 N.ar    1  UNL1       -0.2246
      4 C         139.0030  141.3964  163.3080 C.ar    1  UNL1        0.1702
      5 N         138.8470  141.7564  161.8601 N.ar    1  UNL1       -0.2052
      6 C         139.6982  142.9611  161.5878 C.ar    1  UNL1        0.1647
      7 S         140.3803  143.3456  162.8673 S.2     1  UNL1       -0.0499
      8 C         139.9506  142.3786  163.9304 C.ar    1  UNL1        0.0679
      9 C         140.2998  142.2654  165.3847 C.ar    1  UNL1        0.0112
     10 C         141.3672  141.9104  169.7419 C.ar    1  UNL1        0.0876
     11 C         140.7490  140.8308  170.5800 C.ar    1  UNL1        0.1091
     12 N         139.7815  139.8643  169.9636 N.ar    1  UNL1       -0.2416
     13 C         139.4323  139.9774  168.5091 C.ar    1  UNL1        0.0989
     14 C         140.0505  141.0570  167.6712 C.ar    1  UNL1        0.0214
     15 C         141.0180  142.0235  168.2875 C.ar    1  UNL1        0.0134
     16 N         143.3021  143.8433  170.9747 N.1     1  UNL1       -0.1908
     17 C         142.3347  142.8769  170.3583 C.1     1  UNL1        0.1020
     18 N         139.8422  143.6588  160.2677 N.pl3   1  UNL1       -0.2880
     19 C         140.4777  145.0160  160.2021 C.3     1  UNL1        0.0940
     20 C         140.6216  145.7137  158.8821 C.3     1  UNL1        0.0375
     21 C         140.1301  145.0543  157.6278 C.3     1  UNL1        0.0609
     22 C         139.4946  143.6972  157.6934 C.3     1  UNL1        0.0375
     23 C         139.3506  142.9994  159.0133 C.3     1  UNL1        0.0940
     24 N         140.2740  145.7521  156.3077 N.3     1  UNL1       -0.2738
     25 C         141.1873  145.1909  155.2584 C.3     1  UNL1        0.0720
     26 C         141.3313  145.8886  153.9384 C.3     1  UNL1        0.0174
     27 C         140.5619  147.1474  153.6677 C.3     1  UNL1        0.0029
     28 C         139.6486  147.7086  154.7169 C.3     1  UNL1        0.0174
     29 C         139.5047  147.0109  156.0369 C.3     1  UNL1        0.0720
@<TRIPOS>BOND
     1    16    17    3
     2    17    10    1
     3    10    11   ar
     4    11    12   ar
     5    12    13   ar
     6    13    14   ar
     7    14     1    1
     8     1     2   ar
     9     2     3   ar
    10     3     4   ar
    11     4     5   ar
    12     5     6   ar
    13     6    18    1
    14    18    19    1
    15    19    20    1
    16    20    21    1
    17    21    24    1
    18    24    25    1
    19    25    26    1
    20    26    27    1
    21    27    28    1
    22    28    29    1
    23    21    22    1
    24    22    23    1
    25     6     7   ar
    26     7     8   ar
    27     8     9   ar
    28    14    15   ar
    29    15    10   ar
    30     9     1   ar
    31     8     4   ar
    32    23    18    1
    33    29    24    1
@<TRIPOS>MOLECULE
*****
 29 33 0 0 0
SMALL
GASTEIGER

@<TRIPOS>ATOM
      1 C         139.6158  140.3914  167.0400 C.ar    1  UNL1        0.0213
      2 C         138.7459  139.1809  166.8729 C.ar    1  UNL1        0.1006
      3 N         138.1611  138.8573  165.5301 N.ar    1  UNL1       -0.2246
      4 C         138.4461  139.7441  164.3544 C.ar    1  UNL1        0.1702
      5 N         138.0126  139.6792  162.9198 N.ar    1  UNL1       -0.2052
      6 C         138.6147  140.8496  162.2003 C.ar    1  UNL1        0.1647
      7 S         139.4203  141.6378  163.1902 S.2     1  UNL1       -0.0499
      8 C         139.3161  140.9545  164.5214 C.ar    1  UNL1        0.0679
      9 C         139.9009  141.2782  165.8642 C.ar    1  UNL1        0.0112
     10 C         142.1264  141.7049  169.8188 C.ar    1  UNL1        0.0876
     11 C         141.3706  141.3625  171.0684 C.ar    1  UNL1        0.1091
     12 N         140.0298  140.6964  170.9752 N.ar    1  UNL1       -0.2416
     13 C         139.4449  140.3727  169.6324 C.ar    1  UNL1        0.0989
     14 C         140.2008  140.7151  168.3828 C.ar    1  UNL1        0.0214
     15 C         141.5415  141.3812  168.4760 C.ar    1  UNL1        0.0134
     16 N         144.8080  143.0371  170.0051 N.1     1  UNL1       -0.1908
     17 C         143.4672  142.3710  169.9120 C.1     1  UNL1        0.1020
     18 N         138.4416  141.1747  160.7462 N.pl3   1  UNL1       -0.2880
     19 C         138.8471  142.5217  160.2254 C.3     1  UNL1        0.0940
     20 C         138.6741  142.8469  158.7714 C.3     1  UNL1        0.0375
     21 C         138.0955  141.8251  157.8381 C.3     1  UNL1        0.0609
     22 C         137.6900  140.4781  158.3588 C.3     1  UNL1        0.0375
     23 C         137.8631  140.1529  159.8129 C.3     1  UNL1        0.0940
     24 N         137.9224  142.1502  156.3840 N.3     1  UNL1       -0.2738
     25 C         138.5412  141.2691  155.3396 C.3     1  UNL1        0.0720
     26 C         138.3682  141.5942  153.8856 C.3     1  UNL1        0.0174
     27 C         137.5763  142.8004  153.4759 C.3     1  UNL1        0.0029
     28 C         136.9575  143.6816  154.5202 C.3     1  UNL1        0.0174
     29 C         137.1306  143.3565  155.9743 C.3     1  UNL1        0.0720
@<TRIPOS>BOND
     1    16    17    3
     2    17    10    1
     3    10    11   ar
     4    11    12   ar
     5    12    13   ar
     6    13    14   ar
     7    14     1    1
     8     1     2   ar
     9     2     3   ar
    10     3     4   ar
    11     4     5   ar
    12     5     6   ar
    13     6    18    1
    14    18    19    1
    15    19    20    1
    16    20    21    1
    17    21    24    1
    18    24    25    1
    19    25    26    1
    20    26    27    1
    21    27    28    1
    22    28    29    1
    23    21    22    1
    24    22    23    1
    25     6     7   ar
    26     7     8   ar
    27     8     9   ar
    28    14    15   ar
    29    15    10   ar
    30     9     1   ar
    31     8     4   ar
    32    23    18    1
    33    29    24    1
@<TRIPOS>MOLECULE
*****
 29 33 0 0 0
SMALL
GASTEIGER

@<TRIPOS>ATOM
      1 C         141.9845  142.3179  166.9825 C.ar    1  UNL1        0.0213
      2 C         143.3500  141.8566  166.5672 C.ar    1  UNL1        0.1006
      3 N         143.8163  142.0677  165.1573 N.ar    1  UNL1       -0.2246
      4 C         142.9170  142.7401  164.1627 C.ar    1  UNL1        0.1702
      5 N         143.1013  143.0827  162.7139 N.ar    1  UNL1       -0.2052
      6 C         141.8496  143.7558  162.2340 C.ar    1  UNL1        0.1647
      7 S         140.8918  143.8291  163.3860 S.2     1  UNL1       -0.0499
      8 C         141.5515  143.2014  164.5780 C.ar    1  UNL1        0.0679
      9 C         141.0853  142.9903  165.9880 C.ar    1  UNL1        0.0112
     10 C         139.8205  141.0822  170.0713 C.ar    1  UNL1        0.0876
     11 C         140.5855  141.6845  171.2125 C.ar    1  UNL1        0.1091
     12 N         141.8168  142.4979  170.9436 N.ar    1  UNL1       -0.2416
     13 C         142.2831  142.7090  169.5336 C.ar    1  UNL1        0.0989
     14 C         141.5182  142.1068  168.3926 C.ar    1  UNL1        0.0214
     15 C         140.2869  141.2933  168.6614 C.ar    1  UNL1        0.0134
     16 N         137.3580  139.4554  170.6090 N.1     1  UNL1       -0.1908
     17 C         138.5892  140.2688  170.3402 C.1     1  UNL1        0.1020
     18 N         141.5996  144.2659  160.8457 N.pl3   1  UNL1       -0.2880
     19 C         140.5441  145.3046  160.6071 C.3     1  UNL1        0.0940
     20 C         140.2941  145.8147  159.2189 C.3     1  UNL1        0.0375
     21 C         141.0996  145.2862  158.0692 C.3     1  UNL1        0.0609
     22 C         142.1551  144.2475  158.3078 C.3     1  UNL1        0.0375
     23 C         142.4052  143.7373  159.6960 C.3     1  UNL1        0.0940
     24 N         140.8496  145.7963  156.6809 N.3     1  UNL1       -0.2738
     25 C         141.7271  145.3508  155.5489 C.3     1  UNL1        0.0720
     26 C         141.4771  145.8609  154.1606 C.3     1  UNL1        0.0174
     27 C         140.3497  146.8165  153.9044 C.3     1  UNL1        0.0029
     28 C         139.4722  147.2620  155.0365 C.3     1  UNL1        0.0174
     29 C         139.7221  146.7519  156.4247 C.3     1  UNL1        0.0720
@<TRIPOS>BOND
     1    16    17    3
     2    17    10    1
     3    10    11   ar
     4    11    12   ar
     5    12    13   ar
     6    13    14   ar
     7    14     1    1
     8     1     2   ar
     9     2     3   ar
    10     3     4   ar
    11     4     5   ar
    12     5     6   ar
    13     6    18    1
    14    18    19    1
    15    19    20    1
    16    20    21    1
    17    21    24    1
    18    24    25    1
    19    25    26    1
    20    26    27    1
    21    27    28    1
    22    28    29    1
    23    21    22    1
    24    22    23    1
    25     6     7   ar
    26     7     8   ar
    27     8     9   ar
    28    14    15   ar
    29    15    10   ar
    30     9     1   ar
    31     8     4   ar
    32    23    18    1
    33    29    24    1
@<TRIPOS>MOLECULE
*****
 29 33 0 0 0
SMALL
GASTEIGER

@<TRIPOS>ATOM
      1 C         141.2701  140.3202  165.7045 C.ar    1  UNL1        0.0213
      2 C         140.6874  139.1778  164.9264 C.ar    1  UNL1        0.1006
      3 N         140.2847  139.3735  163.4949 N.ar    1  UNL1       -0.2246
      4 C         140.4646  140.7116  162.8413 C.ar    1  UNL1        0.1702
      5 N         140.1622  141.2008  161.4559 N.ar    1  UNL1       -0.2052
      6 C         140.5580  142.6455  161.3777 C.ar    1  UNL1        0.1647
      7 S         141.1050  143.0492  162.7148 S.2     1  UNL1       -0.0499
      8 C         141.0473  141.8540  163.6193 C.ar    1  UNL1        0.0679
      9 C         141.4500  141.6583  165.0509 C.ar    1  UNL1        0.0112
     10 C         141.4407  140.7571  169.6453 C.ar    1  UNL1        0.0876
     11 C         142.4783  139.7332  169.9994 C.ar    1  UNL1        0.1091
     12 N         143.1131  138.9051  168.9218 N.ar    1  UNL1       -0.2416
     13 C         142.7104  139.1008  167.4901 C.ar    1  UNL1        0.0989
     14 C         141.6728  140.1245  167.1361 C.ar    1  UNL1        0.0214
     15 C         141.0380  140.9527  168.2137 C.ar    1  UNL1        0.0134
     16 N         140.1711  142.4133  171.8005 N.1     1  UNL1       -0.1908
     17 C         140.8059  141.5852  170.7229 C.1     1  UNL1        0.1020
     18 N         140.4294  143.5310  160.1738 N.pl3   1  UNL1       -0.2880
     19 C         139.7569  143.0191  158.9346 C.3     1  UNL1        0.0940
     20 C         139.6283  143.9046  157.7308 C.3     1  UNL1        0.0375
     21 C         140.1721  145.3020  157.7661 C.3     1  UNL1        0.0609
     22 C         140.8446  145.8140  159.0054 C.3     1  UNL1        0.0375
     23 C         140.9732  144.9285  160.2092 C.3     1  UNL1        0.0940
     24 N         140.0435  146.1876  156.5622 N.3     1  UNL1       -0.2738
     25 C         139.1555  147.3956  156.6112 C.3     1  UNL1        0.0720
     26 C         139.0269  148.2811  155.4074 C.3     1  UNL1        0.0174
     27 C         139.7862  147.9587  154.1546 C.3     1  UNL1        0.0029
     28 C         140.6742  146.7508  154.1057 C.3     1  UNL1        0.0174
     29 C         140.8028  145.8652  155.3095 C.3     1  UNL1        0.0720
@<TRIPOS>BOND
     1    16    17    3
     2    17    10    1
     3    10    11   ar
     4    11    12   ar
     5    12    13   ar
     6    13    14   ar
     7    14     1    1
     8     1     2   ar
     9     2     3   ar
    10     3     4   ar
    11     4     5   ar
    12     5     6   ar
    13     6    18    1
    14    18    19    1
    15    19    20    1
    16    20    21    1
    17    21    24    1
    18    24    25    1
    19    25    26    1
    20    26    27    1
    21    27    28    1
    22    28    29    1
    23    21    22    1
    24    22    23    1
    25     6     7   ar
    26     7     8   ar
    27     8     9   ar
    28    14    15   ar
    29    15    10   ar
    30     9     1   ar
    31     8     4   ar
    32    23    18    1
    33    29    24    1
@<TRIPOS>MOLECULE
*****
 29 33 0 0 0
SMALL
GASTEIGER

@<TRIPOS>ATOM
      1 C         140.2133  141.1204  166.7505 C.ar    1  UNL1        0.0213
      2 C         139.1025  140.2507  166.2410 C.ar    1  UNL1        0.1006
      3 N         138.6052  140.4157  164.8355 N.ar    1  UNL1       -0.2246
      4 C         139.2188  141.4506  163.9395 C.ar    1  UNL1        0.1702
      5 N         138.9393  141.8406  162.5183 N.ar    1  UNL1       -0.2052
      6 C         139.8774  142.9515  162.1495 C.ar    1  UNL1        0.1647
      7 S         140.7366  143.2479  163.3428 S.2     1  UNL1       -0.0499
      8 C         140.3295  142.3203  164.4491 C.ar    1  UNL1        0.0679
      9 C         140.8268  142.1552  165.8546 C.ar    1  UNL1        0.0112
     10 C         142.0226  139.5866  169.9323 C.ar    1  UNL1        0.0876
     11 C         141.7052  140.6252  170.9671 C.ar    1  UNL1        0.1091
     12 N         140.8906  141.8289  170.5963 N.ar    1  UNL1       -0.2416
     13 C         140.3933  141.9939  169.1907 C.ar    1  UNL1        0.0989
     14 C         140.7106  140.9553  168.1561 C.ar    1  UNL1        0.0214
     15 C         141.5252  139.7517  168.5269 C.ar    1  UNL1        0.0134
     16 N         143.6518  137.1792  170.6739 N.1     1  UNL1       -0.1908
     17 C         142.8372  138.3829  170.3031 C.1     1  UNL1        0.1020
     18 N         139.9445  143.6443  160.8207 N.pl3   1  UNL1       -0.2880
     19 C         139.5016  142.9291  159.5788 C.3     1  UNL1        0.0940
     20 C         139.5688  143.6218  158.2501 C.3     1  UNL1        0.0375
     21 C         140.0787  145.0297  158.1633 C.3     1  UNL1        0.0609
     22 C         140.5216  145.7449  159.4052 C.3     1  UNL1        0.0375
     23 C         140.4545  145.0522  160.7339 C.3     1  UNL1        0.0940
     24 N         140.1459  145.7225  156.8345 N.3     1  UNL1       -0.2738
     25 C         139.3298  146.9572  156.5904 C.3     1  UNL1        0.0720
     26 C         139.3969  147.6500  155.2617 C.3     1  UNL1        0.0174
     27 C         140.2801  147.1081  154.1771 C.3     1  UNL1        0.0029
     28 C         141.0961  145.8734  154.4212 C.3     1  UNL1        0.0174
     29 C         141.0290  145.1806  155.7499 C.3     1  UNL1        0.0720
@<TRIPOS>BOND
     1    16    17    3
     2    17    10    1
     3    10    11   ar
     4    11    12   ar
     5    12    13   ar
     6    13    14   ar
     7    14     1    1
     8     1     2   ar
     9     2     3   ar
    10     3     4   ar
    11     4     5   ar
    12     5     6   ar
    13     6    18    1
    14    18    19    1
    15    19    20    1
    16    20    21    1
    17    21    24    1
    18    24    25    1
    19    25    26    1
    20    26    27    1
    21    27    28    1
    22    28    29    1
    23    21    22    1
    24    22    23    1
    25     6     7   ar
    26     7     8   ar
    27     8     9   ar
    28    14    15   ar
    29    15    10   ar
    30     9     1   ar
    31     8     4   ar
    32    23    18    1
    33    29    24    1
@<TRIPOS>MOLECULE
*****
 29 33 0 0 0
SMALL
GASTEIGER

@<TRIPOS>ATOM
      1 C         139.9454  145.0726  157.4327 C.ar    1  UNL1        0.0213
      2 C         139.3722  143.6959  157.2717 C.ar    1  UNL1        0.1006
      3 N         139.3208  142.7630  158.4452 N.ar    1  UNL1       -0.2246
      4 C         139.8427  143.2069  159.7796 C.ar    1  UNL1        0.1702
      5 N         139.9239  142.5128  161.1070 N.ar    1  UNL1       -0.2052
      6 C         140.5473  143.4607  162.0882 C.ar    1  UNL1        0.1647
      7 S         140.8514  144.7405  161.3673 S.2     1  UNL1       -0.0499
      8 C         140.4159  144.5836  159.9406 C.ar    1  UNL1        0.0679
      9 C         140.4673  145.5165  158.7671 C.ar    1  UNL1        0.0112
     10 C         139.4331  148.3030  155.1850 C.ar    1  UNL1        0.0876
     11 C         140.0995  147.8714  153.9123 C.ar    1  UNL1        0.1091
     12 N         140.7146  146.5069  153.8131 N.ar    1  UNL1       -0.2416
     13 C         140.6632  145.5740  154.9866 C.ar    1  UNL1        0.0989
     14 C         139.9968  146.0055  156.2592 C.ar    1  UNL1        0.0214
     15 C         139.3817  147.3700  156.3584 C.ar    1  UNL1        0.0134
     16 N         138.2029  151.0320  155.3834 N.1     1  UNL1       -0.1908
     17 C         138.8180  149.6675  155.2842 C.1     1  UNL1        0.1020
     18 N         140.8189  143.1784  163.5362 N.pl3   1  UNL1       -0.2880
     19 C         139.7085  143.2738  164.5401 C.3     1  UNL1        0.0940
     20 C         139.9801  142.9915  165.9880 C.3     1  UNL1        0.0375
     21 C         141.3621  142.6138  166.4320 C.3     1  UNL1        0.0609
     22 C         142.4726  142.5183  165.4281 C.3     1  UNL1        0.0375
     23 C         142.2010  142.8006  163.9802 C.3     1  UNL1        0.0940
     24 N         141.6338  142.3315  167.8800 N.3     1  UNL1       -0.2738
     25 C         140.4922  142.1652  168.8387 C.3     1  UNL1        0.0720
     26 C         140.7638  141.8829  170.2866 C.3     1  UNL1        0.0174
     27 C         142.1770  141.7669  170.7758 C.3     1  UNL1        0.0029
     28 C         143.3186  141.9331  169.8171 C.3     1  UNL1        0.0174
     29 C         143.0470  142.2154  168.3692 C.3     1  UNL1        0.0720
@<TRIPOS>BOND
     1    16    17    3
     2    17    10    1
     3    10    11   ar
     4    11    12   ar
     5    12    13   ar
     6    13    14   ar
     7    14     1    1
     8     1     2   ar
     9     2     3   ar
    10     3     4   ar
    11     4     5   ar
    12     5     6   ar
    13     6    18    1
    14    18    19    1
    15    19    20    1
    16    20    21    1
    17    21    24    1
    18    24    25    1
    19    25    26    1
    20    26    27    1
    21    27    28    1
    22    28    29    1
    23    21    22    1
    24    22    23    1
    25     6     7   ar
    26     7     8   ar
    27     8     9   ar
    28    14    15   ar
    29    15    10   ar
    30     9     1   ar
    31     8     4   ar
    32    23    18    1
    33    29    24    1
@<TRIPOS>MOLECULE
*****
 29 33 0 0 0
SMALL
GASTEIGER

@<TRIPOS>ATOM
      1 C         140.5883  140.9601  165.3315 C.ar    1  UNL1        0.0213
      2 C         140.5789  142.2728  164.6060 C.ar    1  UNL1        0.1006
      3 N         140.6944  142.3042  163.1108 N.ar    1  UNL1       -0.2246
      4 C         140.8193  141.0227  162.3412 C.ar    1  UNL1        0.1702
      5 N         140.9483  140.7420  160.8733 N.ar    1  UNL1       -0.2052
      6 C         141.0375  139.2557  160.6917 C.ar    1  UNL1        0.1647
      7 S         140.9635  138.6179  162.0473 S.2     1  UNL1       -0.0499
      8 C         140.8287  139.7099  163.0667 C.ar    1  UNL1        0.0679
      9 C         140.7132  139.6786  164.5619 C.ar    1  UNL1        0.0112
     10 C         141.1994  141.8145  169.1586 C.ar    1  UNL1        0.0876
     11 C         140.2419  140.8660  169.8173 C.ar    1  UNL1        0.1091
     12 N         139.3999  139.9489  168.9806 N.ar    1  UNL1       -0.2416
     13 C         139.5154  139.9803  167.4854 C.ar    1  UNL1        0.0989
     14 C         140.4728  140.9287  166.8268 C.ar    1  UNL1        0.0214
     15 C         141.3148  141.8458  167.6635 C.ar    1  UNL1        0.0134
     16 N         142.8834  143.6486  170.8319 N.1     1  UNL1       -0.1908
     17 C         142.0414  142.7315  169.9953 C.1     1  UNL1        0.1020
     18 N         141.1763  138.5339  159.3841 N.pl3   1  UNL1       -0.2880
     19 C         140.0035  138.4345  158.4542 C.3     1  UNL1        0.0940
     20 C         140.1422  137.7127  157.1466 C.3     1  UNL1        0.0375
     21 C         141.4537  137.0904  156.7689 C.3     1  UNL1        0.0609
     22 C         142.6265  137.1898  157.6989 C.3     1  UNL1        0.0375
     23 C         142.4878  137.9116  159.0064 C.3     1  UNL1        0.0940
     24 N         141.5925  136.3686  155.4613 N.3     1  UNL1       -0.2738
     25 C         141.4333  137.1169  154.1710 C.3     1  UNL1        0.0720
     26 C         141.5721  136.3951  152.8635 C.3     1  UNL1        0.0174
     27 C         141.8700  134.9252  152.8461 C.3     1  UNL1        0.0029
     28 C         142.0292  134.1769  154.1364 C.3     1  UNL1        0.0174
     29 C         141.8904  134.8986  155.4440 C.3     1  UNL1        0.0720
@<TRIPOS>BOND
     1    16    17    3
     2    17    10    1
     3    10    11   ar
     4    11    12   ar
     5    12    13   ar
     6    13    14   ar
     7    14     1    1
     8     1     2   ar
     9     2     3   ar
    10     3     4   ar
    11     4     5   ar
    12     5     6   ar
    13     6    18    1
    14    18    19    1
    15    19    20    1
    16    20    21    1
    17    21    24    1
    18    24    25    1
    19    25    26    1
    20    26    27    1
    21    27    28    1
    22    28    29    1
    23    21    22    1
    24    22    23    1
    25     6     7   ar
    26     7     8   ar
    27     8     9   ar
    28    14    15   ar
    29    15    10   ar
    30     9     1   ar
    31     8     4   ar
    32    23    18    1
    33    29    24    1
@<TRIPOS>MOLECULE
*****
 29 33 0 0 0
SMALL
GASTEIGER

@<TRIPOS>ATOM
      1 C         140.5518  140.8825  165.5499 C.ar    1  UNL1        0.0213
      2 C         139.3251  140.6372  164.7223 C.ar    1  UNL1        0.1006
      3 N         139.4222  140.6146  163.2257 N.ar    1  UNL1       -0.2246
      4 C         140.7461  140.8373  162.5566 C.ar    1  UNL1        0.1702
      5 N         141.1473  140.8714  161.1116 N.ar    1  UNL1       -0.2052
      6 C         142.6220  141.1378  161.0461 C.ar    1  UNL1        0.1647
      7 S         143.1322  141.2683  162.4507 S.2     1  UNL1       -0.0499
      8 C         141.9729  141.0826  163.3841 C.ar    1  UNL1        0.0679
      9 C         141.8757  141.1052  164.8808 C.ar    1  UNL1        0.0112
     10 C         141.2212  141.8629  169.3368 C.ar    1  UNL1        0.0876
     11 C         140.2604  140.9504  170.0400 C.ar    1  UNL1        0.1091
     12 N         139.3968  140.0153  169.2464 N.ar    1  UNL1       -0.2416
     13 C         139.4939  139.9927  167.7497 C.ar    1  UNL1        0.0989
     14 C         140.4546  140.9051  167.0466 C.ar    1  UNL1        0.0214
     15 C         141.3183  141.8402  167.8402 C.ar    1  UNL1        0.0134
     16 N         142.9484  143.7331  170.9239 N.1     1  UNL1       -0.1908
     17 C         142.0848  142.7980  170.1304 C.1     1  UNL1        0.1020
     18 N         143.4425  141.2533  159.7957 N.pl3   1  UNL1       -0.2880
     19 C         143.3831  140.1726  158.7572 C.3     1  UNL1        0.0940
     20 C         144.2035  140.2881  157.5068 C.3     1  UNL1        0.0375
     21 C         145.0834  141.4843  157.2950 C.3     1  UNL1        0.0609
     22 C         145.1428  142.5650  158.3335 C.3     1  UNL1        0.0375
     23 C         144.3224  142.4495  159.5839 C.3     1  UNL1        0.0940
     24 N         145.9039  141.5999  156.0445 N.3     1  UNL1       -0.2738
     25 C         145.3703  141.0718  154.7459 C.3     1  UNL1        0.0720
     26 C         146.1907  141.1874  153.4955 C.3     1  UNL1        0.0174
     27 C         147.5448  141.8309  153.5438 C.3     1  UNL1        0.0029
     28 C         148.0784  142.3590  154.8424 C.3     1  UNL1        0.0174
     29 C         147.2579  142.2435  156.0928 C.3     1  UNL1        0.0720
@<TRIPOS>BOND
     1    16    17    3
     2    17    10    1
     3    10    11   ar
     4    11    12   ar
     5    12    13   ar
     6    13    14   ar
     7    14     1    1
     8     1     2   ar
     9     2     3   ar
    10     3     4   ar
    11     4     5   ar
    12     5     6   ar
    13     6    18    1
    14    18    19    1
    15    19    20    1
    16    20    21    1
    17    21    24    1
    18    24    25    1
    19    25    26    1
    20    26    27    1
    21    27    28    1
    22    28    29    1
    23    21    22    1
    24    22    23    1
    25     6     7   ar
    26     7     8   ar
    27     8     9   ar
    28    14    15   ar
    29    15    10   ar
    30     9     1   ar
    31     8     4   ar
    32    23    18    1
    33    29    24    1
@<TRIPOS>MOLECULE
*****
 29 33 0 0 0
SMALL
GASTEIGER

@<TRIPOS>ATOM
      1 C         142.9052  137.7442  156.9289 C.ar    1  UNL1        0.0213
      2 C         143.7107  138.9874  156.6928 C.ar    1  UNL1        0.1006
      3 N         144.0553  139.8873  157.8423 N.ar    1  UNL1       -0.2246
      4 C         143.5944  139.5441  159.2279 C.ar    1  UNL1        0.1702
      5 N         143.7794  140.2341  160.5469 N.ar    1  UNL1       -0.2052
      6 C         143.0883  139.4173  161.5982 C.ar    1  UNL1        0.1647
      7 S         142.4761  138.2226  160.9289 S.2     1  UNL1       -0.0499
      8 C         142.7889  138.3010  159.4640 C.ar    1  UNL1        0.0679
      9 C         142.4443  137.4011  158.3145 C.ar    1  UNL1        0.0112
     10 C         141.9686  134.4841  154.8687 C.ar    1  UNL1        0.0876
     11 C         141.8714  135.0442  153.4805 C.ar    1  UNL1        0.1091
     12 N         142.1188  136.5043  153.2418 N.ar    1  UNL1       -0.2416
     13 C         142.4634  137.4043  154.3913 C.ar    1  UNL1        0.0989
     14 C         142.5606  136.8442  155.7794 C.ar    1  UNL1        0.0214
     15 C         142.3132  135.3841  156.0181 C.ar    1  UNL1        0.0134
     16 N         141.4738  131.5640  155.3460 N.1     1  UNL1       -0.1908
     17 C         141.7212  133.0241  155.1074 C.1     1  UNL1        0.1020
     18 N         143.0211  139.7387  163.0619 N.pl3   1  UNL1       -0.2880
     19 C         143.0192  141.1682  163.5165 C.3     1  UNL1        0.0940
     20 C         142.9520  141.4897  164.9800 C.3     1  UNL1        0.0375
     21 C         142.8868  140.3817  165.9890 C.3     1  UNL1        0.0609
     22 C         142.8887  138.9522  165.5344 C.3     1  UNL1        0.0375
     23 C         142.9559  138.6308  164.0708 C.3     1  UNL1        0.0940
     24 N         142.8196  140.7031  167.4527 N.3     1  UNL1       -0.2738
     25 C         142.5966  139.6068  168.4518 C.3     1  UNL1        0.0720
     26 C         142.5294  139.9282  169.9154 C.3     1  UNL1        0.0174
     27 C         142.6853  141.3459  170.3799 C.3     1  UNL1        0.0029
     28 C         142.9082  142.4422  169.3807 C.3     1  UNL1        0.0174
     29 C         142.9754  142.1208  167.9171 C.3     1  UNL1        0.0720
@<TRIPOS>BOND
     1    16    17    3
     2    17    10    1
     3    10    11   ar
     4    11    12   ar
     5    12    13   ar
     6    13    14   ar
     7    14     1    1
     8     1     2   ar
     9     2     3   ar
    10     3     4   ar
    11     4     5   ar
    12     5     6   ar
    13     6    18    1
    14    18    19    1
    15    19    20    1
    16    20    21    1
    17    21    24    1
    18    24    25    1
    19    25    26    1
    20    26    27    1
    21    27    28    1
    22    28    29    1
    23    21    22    1
    24    22    23    1
    25     6     7   ar
    26     7     8   ar
    27     8     9   ar
    28    14    15   ar
    29    15    10   ar
    30     9     1   ar
    31     8     4   ar
    32    23    18    1
    33    29    24    1
