@<TRIPOS>MOLECULE
*****
 31 35 0 0 0
SMALL
GASTEIGER

@<TRIPOS>ATOM
      1 C         138.9837  145.2123  162.4385 C.3     1  UNL1        0.0294
      2 C         140.1123  145.8741  161.7046 C.3     1  UNL1        0.0666
      3 S         141.1278  145.0403  160.9813 S.3     1  UNL1       -0.0756
      4 C         143.1764  142.3475  162.8835 C.ar    1  UNL1        0.1740
      5 N         144.0713  143.5435  163.0210 N.ar    1  UNL1       -0.1277
      6 N         143.4128  144.6977  162.3252 N.ar    1  UNL1       -0.1221
      7 C         142.1109  144.2152  161.7576 C.ar    1  UNL1        0.1932
      8 N         141.9647  142.7627  162.1026 N.ar    1  UNL1       -0.2880
      9 C         140.8098  141.8803  161.7318 C.3     1  UNL1        0.1340
     10 C         143.7485  138.2958  166.2207 C.3     1  UNL1        0.0594
     11 C         143.7087  139.1148  164.9646 C.ar    1  UNL1        0.0883
     12 N         144.0118  138.6218  163.5807 N.ar    1  UNL1       -0.2469
     13 C         143.8493  139.7728  162.6327 C.ar    1  UNL1        0.0685
     14 C         144.0544  139.7275  161.1475 C.3     1  UNL1        0.0527
     15 C         143.4458  140.9771  163.4307 C.ar    1  UNL1        0.0799
     16 S         143.3589  140.5705  164.8719 S.2     1  UNL1       -0.0680
     17 C         139.1515  144.8209  163.8767 C.3     1  UNL1        0.0730
     18 N         138.8609  143.4146  164.3101 N.3     1  UNL1       -0.2724
     19 C         137.8170  142.5098  163.7256 C.3     1  UNL1        0.0725
     20 C         137.8741  141.2022  164.4583 C.3     1  UNL1        0.0227
     21 C         138.9534  141.2988  165.4956 C.3     1  UNL1        0.0350
     22 C         138.3435  139.9314  165.5872 C.3     1  UNL1        0.0101
     23 C         139.0459  139.1830  166.6811 C.3     1  UNL1        0.0264
     24 C         140.0897  140.0878  167.2655 C.ar    1  UNL1       -0.0253
     25 C         141.0850  139.8899  168.3702 C.ar    1  UNL1        0.0068
     26 C         142.0231  140.9997  168.7422 C.ar    1  UNL1        0.0573
     27 CL        143.0184  140.8018  169.8469 Cl      1  UNL1       -0.0823
     28 C         141.9660  142.3073  168.0096 C.ar    1  UNL1        0.0111
     29 C         140.9707  142.5051  166.9049 C.ar    1  UNL1       -0.0037
     30 C         140.0326  141.3954  166.5329 C.ar    1  UNL1       -0.0253
     31 C         139.5633  142.6661  165.4040 C.3     1  UNL1        0.0761
@<TRIPOS>BOND
     1    10    11    1
     2    11    12   ar
     3    12    13   ar
     4    13    14    1
     5    13    15   ar
     6    15     4    1
     7     4     5   ar
     8     5     6   ar
     9     6     7   ar
    10     7     3    1
    11     3     2    1
    12     2     1    1
    13     1    17    1
    14    17    18    1
    15    18    19    1
    16    19    20    1
    17    20    21    1
    18    21    22    1
    19    22    23    1
    20    23    24    1
    21    24    25   ar
    22    25    26   ar
    23    26    27    1
    24    26    28   ar
    25    28    29   ar
    26    29    30   ar
    27    21    31    1
    28     7     8   ar
    29     8     9    1
    30    15    16   ar
    31    16    11   ar
    32     8     4   ar
    33    31    18    1
    34    30    21    1
    35    30    24   ar
@<TRIPOS>MOLECULE
*****
 31 35 0 0 0
SMALL
GASTEIGER

@<TRIPOS>ATOM
      1 C         144.3103  142.6482  161.6366 C.3     1  UNL1        0.0294
      2 C         144.5143  141.2153  162.0308 C.3     1  UNL1        0.0666
      3 S         144.8343  140.8673  163.4543 S.3     1  UNL1       -0.0756
      4 C         142.1938  139.6606  166.0306 C.ar    1  UNL1        0.1740
      5 N         142.3266  138.4457  165.1608 N.ar    1  UNL1       -0.1277
      6 N         143.3319  138.7499  164.0899 N.ar    1  UNL1       -0.1221
      7 C         143.8204  140.1528  164.2978 C.ar    1  UNL1        0.1932
      8 N         143.1171  140.7156  165.4972 N.ar    1  UNL1       -0.2880
      9 C         143.3042  142.0919  166.0637 C.3     1  UNL1        0.1340
     10 C         140.4931  140.2375  170.9960 C.3     1  UNL1        0.0594
     11 C         140.5138  140.0617  169.5065 C.ar    1  UNL1        0.0883
     12 N         139.3126  139.9497  168.6152 N.ar    1  UNL1       -0.2469
     13 C         139.7957  139.7858  167.2046 C.ar    1  UNL1        0.0685
     14 C         138.9309  139.6373  165.9880 C.3     1  UNL1        0.0527
     15 C         141.2955  139.7965  167.2242 C.ar    1  UNL1        0.0799
     16 S         141.7394  139.9670  168.6468 S.2     1  UNL1       -0.0680
     17 C         144.0086  143.6786  162.6841 C.3     1  UNL1        0.0730
     18 N         142.5877  143.9526  163.0793 N.3     1  UNL1       -0.2724
     19 C         142.0702  145.2243  163.6835 C.3     1  UNL1        0.0725
     20 C         140.5976  145.0606  163.9172 C.3     1  UNL1        0.0227
     21 C         140.2050  143.6878  163.4575 C.3     1  UNL1        0.0350
     22 C         138.9750  144.3725  163.9754 C.3     1  UNL1        0.0101
     23 C         137.8223  143.4229  163.8357 C.3     1  UNL1        0.0264
     24 C         138.3399  142.1514  163.2315 C.ar    1  UNL1       -0.0253
     25 C         137.6605  140.8655  162.8639 C.ar    1  UNL1        0.0068
     26 C         138.4537  139.7434  162.2627 C.ar    1  UNL1        0.0573
     27 CL        137.7743  138.4575  161.8951 Cl      1  UNL1       -0.0823
     28 C         139.9262  139.9070  162.0289 C.ar    1  UNL1        0.0111
     29 C         140.6056  141.1928  162.3964 C.ar    1  UNL1       -0.0037
     30 C         139.8124  142.3150  162.9977 C.ar    1  UNL1       -0.0253
     31 C         141.4350  143.0030  162.9396 C.3     1  UNL1        0.0761
@<TRIPOS>BOND
     1    10    11    1
     2    11    12   ar
     3    12    13   ar
     4    13    14    1
     5    13    15   ar
     6    15     4    1
     7     4     5   ar
     8     5     6   ar
     9     6     7   ar
    10     7     3    1
    11     3     2    1
    12     2     1    1
    13     1    17    1
    14    17    18    1
    15    18    19    1
    16    19    20    1
    17    20    21    1
    18    21    22    1
    19    22    23    1
    20    23    24    1
    21    24    25   ar
    22    25    26   ar
    23    26    27    1
    24    26    28   ar
    25    28    29   ar
    26    29    30   ar
    27    21    31    1
    28     7     8   ar
    29     8     9    1
    30    15    16   ar
    31    16    11   ar
    32     8     4   ar
    33    31    18    1
    34    30    21    1
    35    30    24   ar
@<TRIPOS>MOLECULE
*****
 31 35 0 0 0
SMALL
GASTEIGER

@<TRIPOS>ATOM
      1 C         140.6658  145.4443  162.3401 C.3     1  UNL1        0.0294
      2 C         140.7405  145.1267  160.8759 C.3     1  UNL1        0.0666
      3 S         141.5511  143.9568  160.4026 S.3     1  UNL1       -0.0756
      4 C         141.2919  140.5841  162.3062 C.ar    1  UNL1        0.1740
      5 N         140.3417  140.3493  161.1695 N.ar    1  UNL1       -0.1277
      6 N         140.3232  141.5841  160.3181 N.ar    1  UNL1       -0.1221
      7 C         141.2619  142.5821  160.9286 C.ar    1  UNL1        0.1932
      8 N         141.8606  141.9642  162.1572 N.ar    1  UNL1       -0.2880
      9 C         142.8537  142.6124  163.0758 C.3     1  UNL1        0.1340
     10 C         143.5079  138.3485  166.5455 C.3     1  UNL1        0.0594
     11 C         142.6350  138.5824  165.3483 C.ar    1  UNL1        0.0883
     12 N         141.5964  137.6397  164.8167 N.ar    1  UNL1       -0.2469
     13 C         140.9668  138.2748  163.6124 C.ar    1  UNL1        0.0685
     14 C         139.8788  137.6793  162.7689 C.3     1  UNL1        0.0527
     15 C         141.6164  139.6100  163.3998 C.ar    1  UNL1        0.0799
     16 S         142.6474  139.8002  164.4726 S.2     1  UNL1       -0.0680
     17 C         139.3779  145.2521  163.0846 C.3     1  UNL1        0.0730
     18 N         138.8958  143.8681  163.4044 N.3     1  UNL1       -0.2724
     19 C         137.8817  143.0854  162.6240 C.3     1  UNL1        0.0725
     20 C         137.7024  141.7575  163.2981 C.3     1  UNL1        0.0227
     21 C         138.6056  141.7195  164.4951 C.3     1  UNL1        0.0350
     22 C         137.8680  140.4150  164.4294 C.3     1  UNL1        0.0101
     23 C         138.3154  139.5709  165.5858 C.3     1  UNL1        0.0264
     24 C         139.3294  140.3536  166.3661 C.ar    1  UNL1       -0.0253
     25 C         140.1127  140.0287  167.6035 C.ar    1  UNL1        0.0068
     26 C         141.0753  141.0317  168.1667 C.ar    1  UNL1        0.0573
     27 CL        141.8586  140.7068  169.4040 Cl      1  UNL1       -0.0823
     28 C         141.2547  142.3596  167.4927 C.ar    1  UNL1        0.0111
     29 C         140.4714  142.6845  166.2553 C.ar    1  UNL1       -0.0037
     30 C         139.5088  141.6815  165.6921 C.ar    1  UNL1       -0.0253
     31 C         139.3432  143.0240  164.5608 C.3     1  UNL1        0.0761
@<TRIPOS>BOND
     1    10    11    1
     2    11    12   ar
     3    12    13   ar
     4    13    14    1
     5    13    15   ar
     6    15     4    1
     7     4     5   ar
     8     5     6   ar
     9     6     7   ar
    10     7     3    1
    11     3     2    1
    12     2     1    1
    13     1    17    1
    14    17    18    1
    15    18    19    1
    16    19    20    1
    17    20    21    1
    18    21    22    1
    19    22    23    1
    20    23    24    1
    21    24    25   ar
    22    25    26   ar
    23    26    27    1
    24    26    28   ar
    25    28    29   ar
    26    29    30   ar
    27    21    31    1
    28     7     8   ar
    29     8     9    1
    30    15    16   ar
    31    16    11   ar
    32     8     4   ar
    33    31    18    1
    34    30    21    1
    35    30    24   ar
@<TRIPOS>MOLECULE
*****
 31 35 0 0 0
SMALL
GASTEIGER

@<TRIPOS>ATOM
      1 C         138.2758  138.1808  162.0499 C.3     1  UNL1        0.0294
      2 C         137.3603  139.0728  161.2649 C.3     1  UNL1        0.0666
      3 S         137.7130  140.5164  161.0607 S.3     1  UNL1       -0.0756
      4 C         140.0298  142.5436  163.4248 C.ar    1  UNL1        0.1740
      5 N         138.8012  142.4025  164.2738 N.ar    1  UNL1       -0.1277
      6 N         137.7838  141.6260  163.4915 N.ar    1  UNL1       -0.1221
      7 C         138.3836  141.2871  162.1591 C.ar    1  UNL1        0.1932
      8 N         139.7716  141.8541  162.1178 N.ar    1  UNL1       -0.2880
      9 C         140.7329  141.7501  160.9710 C.3     1  UNL1        0.1340
     10 C         144.7319  143.5992  165.5827 C.3     1  UNL1        0.0594
     11 C         143.4557  143.7352  164.8063 C.ar    1  UNL1        0.0883
     12 N         143.0251  144.9388  164.0215 N.ar    1  UNL1       -0.2469
     13 C         141.6894  144.6389  163.4085 C.ar    1  UNL1        0.0685
     14 C         140.8890  145.5653  162.5417 C.3     1  UNL1        0.0527
     15 C         141.2944  143.2499  163.8144 C.ar    1  UNL1        0.0799
     16 S         142.3860  142.6914  164.6783 S.2     1  UNL1       -0.0680
     17 C         139.6873  137.9641  161.5908 C.3     1  UNL1        0.0730
     18 N         140.8299  138.2423  162.5219 N.3     1  UNL1       -0.2724
     19 C         142.2878  138.1387  162.1843 C.3     1  UNL1        0.0725
     20 C         143.0741  138.5053  163.4080 C.3     1  UNL1        0.0227
     21 C         142.1022  138.8354  164.5018 C.3     1  UNL1        0.0350
     22 C         143.4892  138.9980  165.0494 C.3     1  UNL1        0.0101
     23 C         143.3745  139.4286  166.4817 C.3     1  UNL1        0.0264
     24 C         141.9167  139.5321  166.8193 C.ar    1  UNL1       -0.0253
     25 C         141.2037  139.9128  168.0829 C.ar    1  UNL1        0.0068
     26 C         139.7043  139.9270  168.1228 C.ar    1  UNL1        0.0573
     27 CL        138.9912  140.3077  169.3864 Cl      1  UNL1       -0.0823
     28 C         138.9179  139.5604  166.8992 C.ar    1  UNL1        0.0111
     29 C         139.6310  139.1797  165.6356 C.ar    1  UNL1       -0.0037
     30 C         141.1304  139.1655  165.5957 C.ar    1  UNL1       -0.0253
     31 C         140.7152  138.6729  163.9542 C.3     1  UNL1        0.0761
@<TRIPOS>BOND
     1    10    11    1
     2    11    12   ar
     3    12    13   ar
     4    13    14    1
     5    13    15   ar
     6    15     4    1
     7     4     5   ar
     8     5     6   ar
     9     6     7   ar
    10     7     3    1
    11     3     2    1
    12     2     1    1
    13     1    17    1
    14    17    18    1
    15    18    19    1
    16    19    20    1
    17    20    21    1
    18    21    22    1
    19    22    23    1
    20    23    24    1
    21    24    25   ar
    22    25    26   ar
    23    26    27    1
    24    26    28   ar
    25    28    29   ar
    26    29    30   ar
    27    21    31    1
    28     7     8   ar
    29     8     9    1
    30    15    16   ar
    31    16    11   ar
    32     8     4   ar
    33    31    18    1
    34    30    21    1
    35    30    24   ar
@<TRIPOS>MOLECULE
*****
 31 35 0 0 0
SMALL
GASTEIGER

@<TRIPOS>ATOM
      1 C         140.1821  137.1422  164.8160 C.3     1  UNL1        0.0294
      2 C         138.7836  137.6840  164.8437 C.3     1  UNL1        0.0666
      3 S         138.3762  138.6539  165.9129 S.3     1  UNL1       -0.0756
      4 C         140.3411  141.9930  165.6761 C.ar    1  UNL1        0.1740
      5 N         140.3571  141.7515  167.1564 N.ar    1  UNL1       -0.1277
      6 N         139.6230  140.4714  167.4253 N.ar    1  UNL1       -0.1221
      7 C         139.1533  139.9216  166.1111 C.ar    1  UNL1        0.1932
      8 N         139.5970  140.8619  165.0300 N.ar    1  UNL1       -0.2880
      9 C         139.3417  140.6998  163.5608 C.3     1  UNL1        0.1340
     10 C         143.8677  145.1620  163.3522 C.3     1  UNL1        0.0594
     11 C         142.5813  144.6170  163.8982 C.ar    1  UNL1        0.0883
     12 N         141.2450  145.2967  163.8503 N.ar    1  UNL1       -0.2469
     13 C         140.2431  144.3965  164.5105 C.ar    1  UNL1        0.0685
     14 C         138.7809  144.6821  164.6842 C.3     1  UNL1        0.0527
     15 C         140.9603  143.1604  164.9663 C.ar    1  UNL1        0.0799
     16 S         142.4054  143.2967  164.5880 S.2     1  UNL1       -0.0680
     17 C         141.0942  137.4783  163.6736 C.3     1  UNL1        0.0730
     18 N         142.2757  138.3754  163.8960 N.3     1  UNL1       -0.2724
     19 C         143.1488  138.3973  165.1155 C.3     1  UNL1        0.0725
     20 C         144.2041  139.4435  164.9111 C.3     1  UNL1        0.0227
     21 C         143.9832  140.0681  163.5653 C.3     1  UNL1        0.0350
     22 C         145.1751  140.7283  164.1927 C.3     1  UNL1        0.0101
     23 C         145.6907  141.7609  163.2347 C.3     1  UNL1        0.0264
     24 C         144.8175  141.7389  162.0153 C.ar    1  UNL1       -0.0253
     25 C         144.8470  142.5364  160.7452 C.ar    1  UNL1        0.0068
     26 C         143.8212  142.2877  159.6794 C.ar    1  UNL1        0.0573
     27 CL        143.8507  143.0852  158.4093 Cl      1  UNL1       -0.0823
     28 C         142.7659  141.2415  159.8837 C.ar    1  UNL1        0.0111
     29 C         142.7364  140.4440  161.1539 C.ar    1  UNL1       -0.0037
     30 C         143.7622  140.6928  162.2196 C.ar    1  UNL1       -0.0253
     31 C         142.7913  139.4080  162.9380 C.3     1  UNL1        0.0761
@<TRIPOS>BOND
     1    10    11    1
     2    11    12   ar
     3    12    13   ar
     4    13    14    1
     5    13    15   ar
     6    15     4    1
     7     4     5   ar
     8     5     6   ar
     9     6     7   ar
    10     7     3    1
    11     3     2    1
    12     2     1    1
    13     1    17    1
    14    17    18    1
    15    18    19    1
    16    19    20    1
    17    20    21    1
    18    21    22    1
    19    22    23    1
    20    23    24    1
    21    24    25   ar
    22    25    26   ar
    23    26    27    1
    24    26    28   ar
    25    28    29   ar
    26    29    30   ar
    27    21    31    1
    28     7     8   ar
    29     8     9    1
    30    15    16   ar
    31    16    11   ar
    32     8     4   ar
    33    31    18    1
    34    30    21    1
    35    30    24   ar
@<TRIPOS>MOLECULE
*****
 31 35 0 0 0
SMALL
GASTEIGER

@<TRIPOS>ATOM
      1 C         139.3398  138.0251  161.5156 C.3     1  UNL1        0.0294
      2 C         140.6813  137.7354  162.1210 C.3     1  UNL1        0.0666
      3 S         140.7841  137.3489  163.5666 S.3     1  UNL1       -0.0756
      4 C         140.7302  139.9109  166.4820 C.ar    1  UNL1        0.1740
      5 N         139.2853  139.8994  166.0794 N.ar    1  UNL1       -0.1277
      6 N         139.1296  138.9383  164.9383 N.ar    1  UNL1       -0.1221
      7 C         140.4783  138.3558  164.6356 C.ar    1  UNL1        0.1932
      8 N         141.4676  138.9568  165.5897 N.ar    1  UNL1       -0.2880
      9 C         142.9363  138.6566  165.6422 C.3     1  UNL1        0.1340
     10 C         141.8774  141.8229  171.2683 C.3     1  UNL1        0.0594
     11 C         141.8594  141.6110  169.7834 C.ar    1  UNL1        0.0883
     12 N         142.6573  142.3811  168.7733 N.ar    1  UNL1       -0.2469
     13 C         142.3314  141.8379  167.4136 C.ar    1  UNL1        0.0685
     14 C         142.9042  142.3164  166.1125 C.3     1  UNL1        0.0527
     15 C         141.3321  140.7322  167.5835 C.ar    1  UNL1        0.0799
     16 S         141.0404  140.5920  169.0481 S.2     1  UNL1       -0.0680
     17 C         139.0477  139.3855  160.9552 C.3     1  UNL1        0.0730
     18 N         138.6902  140.5148  161.8755 N.3     1  UNL1       -0.2724
     19 C         137.3560  140.7345  162.5247 C.3     1  UNL1        0.0725
     20 C         137.4455  141.9782  163.3585 C.3     1  UNL1        0.0227
     21 C         138.8350  142.5272  163.2246 C.3     1  UNL1        0.0350
     22 C         138.0656  143.4316  164.1412 C.3     1  UNL1        0.0101
     23 C         138.9797  144.5395  164.5737 C.3     1  UNL1        0.0264
     24 C         140.3139  144.3198  163.9244 C.ar    1  UNL1       -0.0253
     25 C         141.5987  145.0915  163.9847 C.ar    1  UNL1        0.0068
     26 C         142.7941  144.6196  163.2112 C.ar    1  UNL1        0.0573
     27 CL        144.0789  145.3914  163.2715 Cl      1  UNL1       -0.0823
     28 C         142.7047  143.3760  162.3774 C.ar    1  UNL1        0.0111
     29 C         141.4198  142.6042  162.3171 C.ar    1  UNL1       -0.0037
     30 C         140.2245  143.0761  163.0906 C.ar    1  UNL1       -0.0253
     31 C         139.6043  141.6227  162.3080 C.3     1  UNL1        0.0761
@<TRIPOS>BOND
     1    10    11    1
     2    11    12   ar
     3    12    13   ar
     4    13    14    1
     5    13    15   ar
     6    15     4    1
     7     4     5   ar
     8     5     6   ar
     9     6     7   ar
    10     7     3    1
    11     3     2    1
    12     2     1    1
    13     1    17    1
    14    17    18    1
    15    18    19    1
    16    19    20    1
    17    20    21    1
    18    21    22    1
    19    22    23    1
    20    23    24    1
    21    24    25   ar
    22    25    26   ar
    23    26    27    1
    24    26    28   ar
    25    28    29   ar
    26    29    30   ar
    27    21    31    1
    28     7     8   ar
    29     8     9    1
    30    15    16   ar
    31    16    11   ar
    32     8     4   ar
    33    31    18    1
    34    30    21    1
    35    30    24   ar
@<TRIPOS>MOLECULE
*****
 31 35 0 0 0
SMALL
GASTEIGER

@<TRIPOS>ATOM
      1 C         142.4845  143.7888  161.0933 C.3     1  UNL1        0.0294
      2 C         141.4345  144.1874  160.0989 C.3     1  UNL1        0.0666
      3 S         140.4007  143.1929  159.6605 S.3     1  UNL1       -0.0756
      4 C         138.6307  141.1092  162.4156 C.ar    1  UNL1        0.1740
      5 N         137.5465  142.0760  162.0419 N.ar    1  UNL1       -0.1277
      6 N         138.0776  142.9743  160.9643 N.ar    1  UNL1       -0.1221
      7 C         139.4900  142.5626  160.6721 C.ar    1  UNL1        0.1932
      8 N         139.8319  141.4099  161.5690 N.ar    1  UNL1       -0.2880
      9 C         141.1445  140.6852  161.6118 C.3     1  UNL1        0.1340
     10 C         137.9753  138.6241  167.0282 C.3     1  UNL1        0.0594
     11 C         138.2299  138.8887  165.5738 C.ar    1  UNL1        0.0883
     12 N         138.5262  137.8547  164.5282 N.ar    1  UNL1       -0.2469
     13 C         138.7124  138.5607  163.2179 C.ar    1  UNL1        0.0685
     14 C         139.0248  137.9106  161.9027 C.3     1  UNL1        0.0527
     15 C         138.5312  140.0309  163.4537 C.ar    1  UNL1        0.0799
     16 S         138.2330  140.2337  164.9097 S.2     1  UNL1       -0.0680
     17 C         142.6102  144.5321  162.3901 C.3     1  UNL1        0.0730
     18 N         141.8461  144.0713  163.5958 N.3     1  UNL1       -0.2724
     19 C         140.6775  144.7741  164.2207 C.3     1  UNL1        0.0725
     20 C         140.2257  143.9639  165.3994 C.3     1  UNL1        0.0227
     21 C         141.1151  142.7604  165.5030 C.3     1  UNL1        0.0350
     22 C         140.1136  142.6940  166.6178 C.3     1  UNL1        0.0101
     23 C         140.3840  141.4494  167.4103 C.3     1  UNL1        0.0264
     24 C         141.5525  140.7468  166.7853 C.ar    1  UNL1       -0.0253
     25 C         142.2636  139.4738  167.1373 C.ar    1  UNL1        0.0068
     26 C         143.4265  139.0110  166.3106 C.ar    1  UNL1        0.0573
     27 CL        144.1376  137.7380  166.6626 Cl      1  UNL1       -0.0823
     28 C         143.8783  139.8211  165.1319 C.ar    1  UNL1        0.0111
     29 C         143.1673  141.0941  164.7799 C.ar    1  UNL1       -0.0037
     30 C         142.0044  141.5569  165.6066 C.ar    1  UNL1       -0.0253
     31 C         142.1166  142.8268  164.3883 C.3     1  UNL1        0.0761
@<TRIPOS>BOND
     1    10    11    1
     2    11    12   ar
     3    12    13   ar
     4    13    14    1
     5    13    15   ar
     6    15     4    1
     7     4     5   ar
     8     5     6   ar
     9     6     7   ar
    10     7     3    1
    11     3     2    1
    12     2     1    1
    13     1    17    1
    14    17    18    1
    15    18    19    1
    16    19    20    1
    17    20    21    1
    18    21    22    1
    19    22    23    1
    20    23    24    1
    21    24    25   ar
    22    25    26   ar
    23    26    27    1
    24    26    28   ar
    25    28    29   ar
    26    29    30   ar
    27    21    31    1
    28     7     8   ar
    29     8     9    1
    30    15    16   ar
    31    16    11   ar
    32     8     4   ar
    33    31    18    1
    34    30    21    1
    35    30    24   ar
@<TRIPOS>MOLECULE
*****
 31 35 0 0 0
SMALL
GASTEIGER

@<TRIPOS>ATOM
      1 C         140.3912  144.2468  161.3095 C.3     1  UNL1        0.0294
      2 C         141.5022  145.0344  161.9382 C.3     1  UNL1        0.0666
      3 S         141.5989  145.1343  163.4317 S.3     1  UNL1       -0.0756
      4 C         142.9554  142.3611  165.7844 C.ar    1  UNL1        0.1740
      5 N         144.1859  142.7005  164.9965 N.ar    1  UNL1       -0.1277
      6 N         143.8276  143.7806  164.0193 N.ar    1  UNL1       -0.1221
      7 C         142.3755  144.1089  164.2032 C.ar    1  UNL1        0.1932
      8 N         141.8364  143.2316  165.2941 N.ar    1  UNL1       -0.2880
      9 C         140.4261  143.2259  165.8049 C.3     1  UNL1        0.1340
     10 C         142.4340  140.1006  170.5277 C.3     1  UNL1        0.0594
     11 C         142.6208  140.2930  169.0518 C.ar    1  UNL1        0.0883
     12 N         142.8079  139.2040  168.0374 N.ar    1  UNL1       -0.2469
     13 C         142.9560  139.8462  166.6899 C.ar    1  UNL1        0.0685
     14 C         143.1634  139.1285  165.3892 C.3     1  UNL1        0.0527
     15 C         142.8604  141.3321  166.8716 C.ar    1  UNL1        0.0799
     16 S         142.6532  141.6083  168.3313 S.2     1  UNL1       -0.0680
     17 C         139.6538  143.2170  162.1131 C.3     1  UNL1        0.0730
     18 N         140.1352  141.7965  162.1345 N.3     1  UNL1       -0.2724
     19 C         141.1329  141.1895  161.1932 C.3     1  UNL1        0.0725
     20 C         141.3178  139.7515  161.5780 C.3     1  UNL1        0.0227
     21 C         140.4344  139.4699  162.7571 C.3     1  UNL1        0.0350
     22 C         141.1652  138.2059  162.4131 C.3     1  UNL1        0.0101
     23 C         140.7335  137.1432  163.3796 C.3     1  UNL1        0.0264
     24 C         139.7359  137.7503  164.3209 C.ar    1  UNL1       -0.0253
     25 C         138.9718  137.1795  165.4787 C.ar    1  UNL1        0.0068
     26 C         138.0229  138.0467  166.2517 C.ar    1  UNL1        0.0573
     27 CL        137.2589  137.4759  167.4095 Cl      1  UNL1       -0.0823
     28 C         137.8380  139.4846  165.8670 C.ar    1  UNL1        0.0111
     29 C         138.6021  140.0554  164.7092 C.ar    1  UNL1       -0.0037
     30 C         139.5510  139.1882  163.9362 C.ar    1  UNL1       -0.0253
     31 C         139.7035  140.7338  163.1010 C.3     1  UNL1        0.0761
@<TRIPOS>BOND
     1    10    11    1
     2    11    12   ar
     3    12    13   ar
     4    13    14    1
     5    13    15   ar
     6    15     4    1
     7     4     5   ar
     8     5     6   ar
     9     6     7   ar
    10     7     3    1
    11     3     2    1
    12     2     1    1
    13     1    17    1
    14    17    18    1
    15    18    19    1
    16    19    20    1
    17    20    21    1
    18    21    22    1
    19    22    23    1
    20    23    24    1
    21    24    25   ar
    22    25    26   ar
    23    26    27    1
    24    26    28   ar
    25    28    29   ar
    26    29    30   ar
    27    21    31    1
    28     7     8   ar
    29     8     9    1
    30    15    16   ar
    31    16    11   ar
    32     8     4   ar
    33    31    18    1
    34    30    21    1
    35    30    24   ar
@<TRIPOS>MOLECULE
*****
 31 35 0 0 0
SMALL
GASTEIGER

@<TRIPOS>ATOM
      1 C         138.5439  139.8648  166.6031 C.3     1  UNL1        0.0294
      2 C         138.1402  138.4396  166.3665 C.3     1  UNL1        0.0666
      3 S         138.7415  137.6689  165.2288 S.3     1  UNL1       -0.0756
      4 C         140.7914  139.4371  162.4471 C.ar    1  UNL1        0.1740
      5 N         139.3954  139.5896  161.9199 N.ar    1  UNL1       -0.1277
      6 N         138.4576  138.9458  162.8977 N.ar    1  UNL1       -0.1221
      7 C         139.2740  138.3954  164.0293 C.ar    1  UNL1        0.1932
      8 N         140.7163  138.6989  163.7509 N.ar    1  UNL1       -0.2880
      9 C         141.8794  138.3293  164.6230 C.3     1  UNL1        0.1340
     10 C         144.6994  142.5980  160.8297 C.3     1  UNL1        0.0594
     11 C         143.8390  141.3880  161.0432 C.ar    1  UNL1        0.0883
     12 N         144.0974  140.0150  160.4974 N.ar    1  UNL1       -0.2469
     13 C         142.9872  139.1170  160.9569 C.ar    1  UNL1        0.0685
     14 C         142.8462  137.6572  160.6419 C.3     1  UNL1        0.0527
     15 C         142.0427  139.9351  161.7867 C.ar    1  UNL1        0.0799
     16 S         142.5691  141.3387  161.8401 S.2     1  UNL1       -0.0680
     17 C         139.6659  140.1797  167.5475 C.3     1  UNL1        0.0730
     18 N         140.8878  140.8928  167.0492 N.3     1  UNL1       -0.2724
     19 C         142.2998  140.6308  167.4826 C.3     1  UNL1        0.0725
     20 C         143.1969  141.5692  166.7312 C.3     1  UNL1        0.0227
     21 C         142.3394  142.4111  165.8334 C.3     1  UNL1        0.0350
     22 C         143.7665  142.8292  165.6369 C.3     1  UNL1        0.0101
     23 C         143.7910  143.9294  164.6176 C.3     1  UNL1        0.0264
     24 C         142.3792  144.1913  164.1843 C.ar    1  UNL1       -0.0253
     25 C         141.7945  145.1630  163.2025 C.ar    1  UNL1        0.0068
     26 C         140.3127  145.1964  162.9721 C.ar    1  UNL1        0.0573
     27 CL        139.7280  146.1682  161.9903 Cl      1  UNL1       -0.0823
     28 C         139.4155  144.2581  163.7234 C.ar    1  UNL1        0.0111
     29 C         140.0002  143.2864  164.7052 C.ar    1  UNL1       -0.0037
     30 C         141.4820  143.2530  164.9356 C.ar    1  UNL1       -0.0253
     31 C         140.9124  141.9930  166.0299 C.3     1  UNL1        0.0761
@<TRIPOS>BOND
     1    10    11    1
     2    11    12   ar
     3    12    13   ar
     4    13    14    1
     5    13    15   ar
     6    15     4    1
     7     4     5   ar
     8     5     6   ar
     9     6     7   ar
    10     7     3    1
    11     3     2    1
    12     2     1    1
    13     1    17    1
    14    17    18    1
    15    18    19    1
    16    19    20    1
    17    20    21    1
    18    21    22    1
    19    22    23    1
    20    23    24    1
    21    24    25   ar
    22    25    26   ar
    23    26    27    1
    24    26    28   ar
    25    28    29   ar
    26    29    30   ar
    27    21    31    1
    28     7     8   ar
    29     8     9    1
    30    15    16   ar
    31    16    11   ar
    32     8     4   ar
    33    31    18    1
    34    30    21    1
    35    30    24   ar
