@<TRIPOS>MOLECULE
*****
 26 29 0 0 0
SMALL
GASTEIGER

@<TRIPOS>ATOM
      1 C         139.6879  140.9720  164.6989 C.3     1  UNL1        0.2542
      2 C         138.2973  141.4843  164.9309 C.3     1  UNL1        0.2573
      3 N         137.6363  141.6518  163.5948 N.pl3   1  UNL1       -0.2136
      4 C         138.6183  141.2431  162.5372 C.2     1  UNL1        0.3356
      5 N         139.8863  140.8230  163.2195 N.2     1  UNL1       -0.0599
      6 H         136.7189  141.9736  163.4394 H       1  UNL1        0.2924
      7 F         145.3311  138.9595  165.0223 F       1  UNL1       -0.2042
      8 C         143.9203  139.4626  164.9415 C.ar    1  UNL1        0.1401
      9 C         143.6551  140.9031  164.6179 C.ar    1  UNL1        0.0295
     10 C         142.2443  141.4062  164.5371 C.ar    1  UNL1        0.0025
     11 C         141.0987  140.4689  164.7798 C.ar    1  UNL1        0.0298
     12 C         141.3639  139.0284  165.1033 C.ar    1  UNL1        0.0025
     13 C         142.7747  138.5253  165.1842 C.ar    1  UNL1        0.0295
     14 C         139.7845  141.0158  166.1952 C.ar    1  UNL1        0.0298
     15 C         140.4176  142.1955  166.8716 C.ar    1  UNL1        0.0025
     16 C         140.5142  142.2393  168.3678 C.ar    1  UNL1        0.0295
     17 C         139.9777  141.1035  169.1876 C.ar    1  UNL1        0.1401
     18 F         140.0743  141.1473  170.6839 F       1  UNL1       -0.2042
     19 C         139.3446  139.9239  168.5112 C.ar    1  UNL1        0.0295
     20 C         139.2481  139.8800  167.0150 C.ar    1  UNL1        0.0025
     21 C         138.3750  141.2529  161.0571 C.ar    1  UNL1        0.1819
     22 C         137.9070  140.0067  160.3658 C.ar    1  UNL1        0.1255
     23 N         137.6637  140.0164  158.8857 N.ar    1  UNL1       -0.2389
     24 C         137.8883  141.2723  158.0969 C.ar    1  UNL1        0.1195
     25 C         138.3563  142.5185  158.7882 C.ar    1  UNL1        0.1198
     26 N         138.5996  142.5089  160.2684 N.ar    1  UNL1       -0.2333
@<TRIPOS>BOND
     1     7     8    1
     2     8     9   ar
     3     9    10   ar
     4    10    11   ar
     5    11     1    1
     6     1    14    1
     7    14    15   ar
     8    15    16   ar
     9    16    17   ar
    10    17    18    1
    11    17    19   ar
    12    19    20   ar
    13     1     2    1
    14     2     3    1
    15     3     4    1
    16     4    21    1
    17    21    22   ar
    18    22    23   ar
    19    23    24   ar
    20    24    25   ar
    21    25    26   ar
    22     4     5    2
    23    11    12   ar
    24    12    13   ar
    25    13     8   ar
    26     5     1    1
    27    20    14   ar
    28    26    21   ar
    29     3     6    1
@<TRIPOS>MOLECULE
*****
 26 29 0 0 0
SMALL
GASTEIGER

@<TRIPOS>ATOM
      1 C         142.9814  141.2140  164.4220 C.3     1  UNL1        0.2542
      2 C         144.2593  140.4391  164.5501 C.3     1  UNL1        0.2573
      3 N         144.8209  140.2406  163.1734 N.pl3   1  UNL1       -0.2136
      4 C         143.8901  140.8929  162.1946 C.2     1  UNL1        0.3356
      5 N         142.7532  141.4945  162.9662 N.2     1  UNL1       -0.0599
      6 H         145.6542  139.7657  162.9513 H       1  UNL1        0.2924
      7 F         137.8356  144.2103  165.1594 F       1  UNL1       -0.2042
      8 C         139.1220  143.4612  164.9751 C.ar    1  UNL1        0.1401
      9 C         140.3705  144.1981  164.5900 C.ar    1  UNL1        0.0295
     10 C         141.6569  143.4491  164.4056 C.ar    1  UNL1        0.0025
     11 C         141.6949  141.9631  164.6064 C.ar    1  UNL1        0.0298
     12 C         140.4465  141.2262  164.9915 C.ar    1  UNL1        0.0025
     13 C         139.1601  141.9752  165.1758 C.ar    1  UNL1        0.0295
     14 C         142.9405  141.0902  165.9164 C.ar    1  UNL1        0.0298
     15 C         143.1614  142.2997  166.7756 C.ar    1  UNL1        0.0025
     16 C         143.1206  142.1758  168.2698 C.ar    1  UNL1        0.0295
     17 C         142.8589  140.8424  168.9049 C.ar    1  UNL1        0.1401
     18 F         142.8181  140.7185  170.3993 F       1  UNL1       -0.2042
     19 C         142.6381  139.6328  168.0459 C.ar    1  UNL1        0.0295
     20 C         142.6789  139.7567  166.5515 C.ar    1  UNL1        0.0025
     21 C         144.0655  140.9360  160.7055 C.ar    1  UNL1        0.1819
     22 C         143.8578  139.6946  159.8896 C.ar    1  UNL1        0.1255
     23 N         144.0332  139.7376  158.4006 N.ar    1  UNL1       -0.2389
     24 C         144.4163  141.0221  157.7273 C.ar    1  UNL1        0.1195
     25 C         144.6240  142.2635  158.5431 C.ar    1  UNL1        0.1198
     26 N         144.4486  142.2206  160.0323 N.ar    1  UNL1       -0.2333
@<TRIPOS>BOND
     1     7     8    1
     2     8     9   ar
     3     9    10   ar
     4    10    11   ar
     5    11     1    1
     6     1    14    1
     7    14    15   ar
     8    15    16   ar
     9    16    17   ar
    10    17    18    1
    11    17    19   ar
    12    19    20   ar
    13     1     2    1
    14     2     3    1
    15     3     4    1
    16     4    21    1
    17    21    22   ar
    18    22    23   ar
    19    23    24   ar
    20    24    25   ar
    21    25    26   ar
    22     4     5    2
    23    11    12   ar
    24    12    13   ar
    25    13     8   ar
    26     5     1    1
    27    20    14   ar
    28    26    21   ar
    29     3     6    1
@<TRIPOS>MOLECULE
*****
 26 29 0 0 0
SMALL
GASTEIGER

@<TRIPOS>ATOM
      1 C         140.6846  139.7072  164.7348 C.3     1  UNL1        0.2542
      2 C         141.2729  138.3418  164.9333 C.3     1  UNL1        0.2573
      3 N         141.4906  137.7299  163.5812 N.pl3   1  UNL1       -0.2136
      4 C         141.0370  138.7172  162.5471 C.2     1  UNL1        0.3356
      5 N         140.5388  139.9392  163.2600 N.2     1  UNL1       -0.0599
      6 H         141.8655  136.8370  163.4036 H       1  UNL1        0.2924
      7 F         138.3515  145.2159  165.1942 F       1  UNL1       -0.2042
      8 C         138.9348  143.8387  165.0793 C.ar    1  UNL1        0.1401
      9 C         138.0748  142.6952  164.6291 C.ar    1  UNL1        0.0295
     10 C         138.6581  141.3180  164.5143 C.ar    1  UNL1        0.0025
     11 C         140.1013  141.0844  164.8496 C.ar    1  UNL1        0.0298
     12 C         140.9613  142.2280  165.2998 C.ar    1  UNL1        0.0025
     13 C         140.3780  143.6051  165.4147 C.ar    1  UNL1        0.0295
     14 C         140.7085  139.7631  166.2336 C.ar    1  UNL1        0.0298
     15 C         139.4257  139.8959  166.9997 C.ar    1  UNL1        0.0025
     16 C         139.4496  139.9518  168.4984 C.ar    1  UNL1        0.0295
     17 C         140.7562  139.8749  169.2311 C.ar    1  UNL1        0.1401
     18 F         140.7800  139.9308  170.7298 F       1  UNL1       -0.2042
     19 C         142.0389  139.7422  168.4651 C.ar    1  UNL1        0.0295
     20 C         142.0150  139.6862  166.9663 C.ar    1  UNL1        0.0025
     21 C         141.0748  138.5174  161.0609 C.ar    1  UNL1        0.1819
     22 C         139.8093  138.6030  160.2602 C.ar    1  UNL1        0.1255
     23 N         139.8471  138.4032  158.7741 N.ar    1  UNL1       -0.2389
     24 C         141.1505  138.1179  158.0886 C.ar    1  UNL1        0.1195
     25 C         142.4160  138.0323  158.8893 C.ar    1  UNL1        0.1198
     26 N         142.3782  138.2321  160.3755 N.ar    1  UNL1       -0.2333
@<TRIPOS>BOND
     1     7     8    1
     2     8     9   ar
     3     9    10   ar
     4    10    11   ar
     5    11     1    1
     6     1    14    1
     7    14    15   ar
     8    15    16   ar
     9    16    17   ar
    10    17    18    1
    11    17    19   ar
    12    19    20   ar
    13     1     2    1
    14     2     3    1
    15     3     4    1
    16     4    21    1
    17    21    22   ar
    18    22    23   ar
    19    23    24   ar
    20    24    25   ar
    21    25    26   ar
    22     4     5    2
    23    11    12   ar
    24    12    13   ar
    25    13     8   ar
    26     5     1    1
    27    20    14   ar
    28    26    21   ar
    29     3     6    1
@<TRIPOS>MOLECULE
*****
 26 29 0 0 0
SMALL
GASTEIGER

@<TRIPOS>ATOM
      1 C         141.0500  142.6699  164.6287 C.3     1  UNL1        0.2542
      2 C         141.7855  143.9757  164.6927 C.3     1  UNL1        0.2573
      3 N         141.7601  144.5895  163.3242 N.pl3   1  UNL1       -0.2136
      4 C         141.0090  143.6631  162.4145 C.2     1  UNL1        0.3356
      5 N         140.5702  142.4767  163.2207 N.2     1  UNL1       -0.0599
      6 H         142.1653  145.4495  163.0681 H       1  UNL1        0.2924
      7 F         138.3935  137.3770  165.5921 F       1  UNL1       -0.2042
      8 C         139.0577  138.7003  165.3512 C.ar    1  UNL1        0.1401
      9 C         140.5469  138.7732  165.1875 C.ar    1  UNL1        0.0295
     10 C         141.2110  140.0964  164.9466 C.ar    1  UNL1        0.0025
     11 C         140.3859  141.3467  164.8695 C.ar    1  UNL1        0.0298
     12 C         138.8967  141.2738  165.0333 C.ar    1  UNL1        0.0025
     13 C         138.2326  139.9505  165.2741 C.ar    1  UNL1        0.0295
     14 C         141.3910  142.5865  166.0870 C.ar    1  UNL1        0.0298
     15 C         140.3363  142.8508  167.1202 C.ar    1  UNL1        0.0025
     16 C         140.6772  142.7674  168.5785 C.ar    1  UNL1        0.0295
     17 C         142.0730  142.4196  169.0036 C.ar    1  UNL1        0.1401
     18 F         142.4140  142.3362  170.4620 F       1  UNL1       -0.2042
     19 C         143.1278  142.1553  167.9705 C.ar    1  UNL1        0.0295
     20 C         142.7868  142.2387  166.5122 C.ar    1  UNL1        0.0025
     21 C         140.7435  143.8843  160.9549 C.ar    1  UNL1        0.1819
     22 C         139.5051  143.3201  160.3240 C.ar    1  UNL1        0.1255
     23 N         139.2395  143.5412  158.8644 N.ar    1  UNL1       -0.2389
     24 C         140.2122  144.3266  158.0356 C.ar    1  UNL1        0.1195
     25 C         141.4506  144.8908  158.6664 C.ar    1  UNL1        0.1198
     26 N         141.7163  144.6697  160.1261 N.ar    1  UNL1       -0.2333
@<TRIPOS>BOND
     1     7     8    1
     2     8     9   ar
     3     9    10   ar
     4    10    11   ar
     5    11     1    1
     6     1    14    1
     7    14    15   ar
     8    15    16   ar
     9    16    17   ar
    10    17    18    1
    11    17    19   ar
    12    19    20   ar
    13     1     2    1
    14     2     3    1
    15     3     4    1
    16     4    21    1
    17    21    22   ar
    18    22    23   ar
    19    23    24   ar
    20    24    25   ar
    21    25    26   ar
    22     4     5    2
    23    11    12   ar
    24    12    13   ar
    25    13     8   ar
    26     5     1    1
    27    20    14   ar
    28    26    21   ar
    29     3     6    1
@<TRIPOS>MOLECULE
*****
 26 29 0 0 0
SMALL
GASTEIGER

@<TRIPOS>ATOM
      1 C         139.3628  140.5035  163.7030 C.3     1  UNL1        0.2542
      2 C         137.9057  140.7615  163.4575 C.3     1  UNL1        0.2573
      3 N         137.7941  141.8676  162.4504 N.pl3   1  UNL1       -0.2136
      4 C         139.1823  142.2931  162.0735 C.2     1  UNL1        0.3356
      5 N         140.1517  141.4501  162.8477 N.2     1  UNL1       -0.0599
      6 H         136.9568  142.2476  162.0985 H       1  UNL1        0.2924
      7 F         144.7676  138.5964  165.4780 F       1  UNL1       -0.2042
      8 C         143.4164  139.0732  165.0343 C.ar    1  UNL1        0.1401
      9 C         142.5556  139.8662  165.9723 C.ar    1  UNL1        0.0295
     10 C         141.2044  140.3430  165.5286 C.ar    1  UNL1        0.0025
     11 C         140.7140  140.0267  164.1468 C.ar    1  UNL1        0.0298
     12 C         141.5748  139.2337  163.2087 C.ar    1  UNL1        0.0025
     13 C         142.9260  138.7569  163.6525 C.ar    1  UNL1        0.0295
     14 C         138.8563  139.4573  164.6512 C.ar    1  UNL1        0.0298
     15 C         138.9760  138.0043  164.2984 C.ar    1  UNL1        0.0025
     16 C         138.4696  136.9581  165.2465 C.ar    1  UNL1        0.0295
     17 C         137.8434  137.3649  166.5474 C.ar    1  UNL1        0.1401
     18 F         137.3369  136.3187  167.4955 F       1  UNL1       -0.2042
     19 C         137.7237  138.8178  166.9002 C.ar    1  UNL1        0.0295
     20 C         138.2301  139.8641  165.9521 C.ar    1  UNL1        0.0025
     21 C         139.5383  143.3722  161.0944 C.ar    1  UNL1        0.1819
     22 C         139.6160  144.8000  161.5473 C.ar    1  UNL1        0.1255
     23 N         139.9721  145.8792  160.5683 N.ar    1  UNL1       -0.2389
     24 C         140.2505  145.5305  159.1361 C.ar    1  UNL1        0.1195
     25 C         140.1728  144.1027  158.6832 C.ar    1  UNL1        0.1198
     26 N         139.8167  143.0234  159.6623 N.ar    1  UNL1       -0.2333
@<TRIPOS>BOND
     1     7     8    1
     2     8     9   ar
     3     9    10   ar
     4    10    11   ar
     5    11     1    1
     6     1    14    1
     7    14    15   ar
     8    15    16   ar
     9    16    17   ar
    10    17    18    1
    11    17    19   ar
    12    19    20   ar
    13     1     2    1
    14     2     3    1
    15     3     4    1
    16     4    21    1
    17    21    22   ar
    18    22    23   ar
    19    23    24   ar
    20    24    25   ar
    21    25    26   ar
    22     4     5    2
    23    11    12   ar
    24    12    13   ar
    25    13     8   ar
    26     5     1    1
    27    20    14   ar
    28    26    21   ar
    29     3     6    1
@<TRIPOS>MOLECULE
*****
 26 29 0 0 0
SMALL
GASTEIGER

@<TRIPOS>ATOM
      1 C         140.0920  139.4238  163.3764 C.3     1  UNL1        0.2542
      2 C         140.7159  138.1154  163.7623 C.3     1  UNL1        0.2573
      3 N         141.2729  137.4836  162.5211 N.pl3   1  UNL1       -0.2136
      4 C         140.9932  138.4015  161.3681 C.2     1  UNL1        0.3356
      5 N         140.2634  139.6006  161.8968 N.2     1  UNL1       -0.0599
      6 H         141.7400  136.6184  162.4718 H       1  UNL1        0.2924
      7 F         137.3326  144.7420  163.0564 F       1  UNL1       -0.2042
      8 C         138.0224  143.4124  163.1364 C.ar    1  UNL1        0.1401
      9 C         137.2149  142.1551  163.2663 C.ar    1  UNL1        0.0295
     10 C         137.9048  140.8256  163.3463 C.ar    1  UNL1        0.0025
     11 C         139.4022  140.7534  163.2964 C.ar    1  UNL1        0.0298
     12 C         140.2097  142.0107  163.1666 C.ar    1  UNL1        0.0025
     13 C         139.5198  143.3403  163.0866 C.ar    1  UNL1        0.0295
     14 C         139.7764  139.5250  164.8394 C.ar    1  UNL1        0.0298
     15 C         140.6676  140.3215  165.7456 C.ar    1  UNL1        0.0025
     16 C         140.3520  140.4227  167.2084 C.ar    1  UNL1        0.0295
     17 C         139.1452  139.7273  167.7652 C.ar    1  UNL1        0.1401
     18 F         138.8296  139.8285  169.2281 F       1  UNL1       -0.2042
     19 C         138.2540  138.9308  166.8591 C.ar    1  UNL1        0.0295
     20 C         138.5696  138.8296  165.3961 C.ar    1  UNL1        0.0025
     21 C         141.3761  138.1622  159.9377 C.ar    1  UNL1        0.1819
     22 C         142.7649  137.7075  159.5991 C.ar    1  UNL1        0.1255
     23 N         143.1479  137.4683  158.1687 N.ar    1  UNL1       -0.2389
     24 C         142.1421  137.6836  157.0769 C.ar    1  UNL1        0.1195
     25 C         140.7534  138.1383  157.4155 C.ar    1  UNL1        0.1198
     26 N         140.3703  138.3776  158.8459 N.ar    1  UNL1       -0.2333
@<TRIPOS>BOND
     1     7     8    1
     2     8     9   ar
     3     9    10   ar
     4    10    11   ar
     5    11     1    1
     6     1    14    1
     7    14    15   ar
     8    15    16   ar
     9    16    17   ar
    10    17    18    1
    11    17    19   ar
    12    19    20   ar
    13     1     2    1
    14     2     3    1
    15     3     4    1
    16     4    21    1
    17    21    22   ar
    18    22    23   ar
    19    23    24   ar
    20    24    25   ar
    21    25    26   ar
    22     4     5    2
    23    11    12   ar
    24    12    13   ar
    25    13     8   ar
    26     5     1    1
    27    20    14   ar
    28    26    21   ar
    29     3     6    1
@<TRIPOS>MOLECULE
*****
 26 29 0 0 0
SMALL
GASTEIGER

@<TRIPOS>ATOM
      1 C         140.9102  141.6815  165.2912 C.3     1  UNL1        0.2542
      2 C         141.7455  142.9176  165.4471 C.3     1  UNL1        0.2573
      3 N         141.7106  143.6674  164.1483 N.pl3   1  UNL1       -0.2136
      4 C         140.8538  142.8946  163.1899 C.2     1  UNL1        0.3356
      5 N         140.3591  141.6673  163.8962 N.2     1  UNL1       -0.0599
      6 H         142.1695  144.5174  163.9583 H       1  UNL1        0.2924
      7 F         137.8983  136.5234  165.8594 F       1  UNL1       -0.2042
      8 C         138.6513  137.8129  165.7174 C.ar    1  UNL1        0.1401
      9 C         138.1670  139.0457  166.4215 C.ar    1  UNL1        0.0295
     10 C         138.9200  140.3352  166.2794 C.ar    1  UNL1        0.0025
     11 C         140.1573  140.3920  165.4333 C.ar    1  UNL1        0.0298
     12 C         140.6415  139.1592  164.7292 C.ar    1  UNL1        0.0025
     13 C         139.8885  137.8697  164.8712 C.ar    1  UNL1        0.0295
     14 C         141.3040  141.4261  166.7160 C.ar    1  UNL1        0.0298
     15 C         142.2330  140.2958  167.0463 C.ar    1  UNL1        0.0025
     16 C         142.6267  140.0404  168.4709 C.ar    1  UNL1        0.0295
     17 C         142.0914  140.9154  169.5653 C.ar    1  UNL1        0.1401
     18 F         142.4851  140.6601  170.9900 F       1  UNL1       -0.2042
     19 C         141.1624  142.0458  169.2351 C.ar    1  UNL1        0.0295
     20 C         140.7686  142.3012  167.8104 C.ar    1  UNL1        0.0025
     21 C         140.5457  143.2813  161.7737 C.ar    1  UNL1        0.1819
     22 C         140.1674  144.6957  161.4479 C.ar    1  UNL1        0.1255
     23 N         139.8593  145.0825  160.0317 N.ar    1  UNL1       -0.2389
     24 C         139.9295  144.0548  158.9413 C.ar    1  UNL1        0.1195
     25 C         140.3078  142.6404  159.2672 C.ar    1  UNL1        0.1198
     26 N         140.6159  142.2535  160.6834 N.ar    1  UNL1       -0.2333
@<TRIPOS>BOND
     1     7     8    1
     2     8     9   ar
     3     9    10   ar
     4    10    11   ar
     5    11     1    1
     6     1    14    1
     7    14    15   ar
     8    15    16   ar
     9    16    17   ar
    10    17    18    1
    11    17    19   ar
    12    19    20   ar
    13     1     2    1
    14     2     3    1
    15     3     4    1
    16     4    21    1
    17    21    22   ar
    18    22    23   ar
    19    23    24   ar
    20    24    25   ar
    21    25    26   ar
    22     4     5    2
    23    11    12   ar
    24    12    13   ar
    25    13     8   ar
    26     5     1    1
    27    20    14   ar
    28    26    21   ar
    29     3     6    1
@<TRIPOS>MOLECULE
*****
 26 29 0 0 0
SMALL
GASTEIGER

@<TRIPOS>ATOM
      1 C         141.3721  143.0297  163.9268 C.3     1  UNL1        0.2542
      2 C         142.1053  144.3113  164.1915 C.3     1  UNL1        0.2573
      3 N         142.2414  145.0447  162.8900 N.pl3   1  UNL1       -0.2136
      4 C         141.5924  144.2164  161.8211 C.2     1  UNL1        0.3356
      5 N         141.0551  142.9711  162.4618 N.2     1  UNL1       -0.0599
      6 H         142.6798  145.9166  162.7603 H       1  UNL1        0.2924
      7 F         138.5825  137.7205  164.1007 F       1  UNL1       -0.2042
      8 C         139.2799  139.0478  164.0572 C.ar    1  UNL1        0.1401
      9 C         138.4794  140.3131  163.9664 C.ar    1  UNL1        0.0295
     10 C         139.1768  141.6404  163.9229 C.ar    1  UNL1        0.0025
     11 C         140.6747  141.7024  163.9703 C.ar    1  UNL1        0.0298
     12 C         141.4752  140.4372  164.0611 C.ar    1  UNL1        0.0025
     13 C         140.7778  139.1099  164.1046 C.ar    1  UNL1        0.0295
     14 C         141.5433  142.8109  165.4008 C.ar    1  UNL1        0.0298
     15 C         142.8842  142.4243  165.9509 C.ar    1  UNL1        0.0025
     16 C         143.0553  142.2055  167.4249 C.ar    1  UNL1        0.0295
     17 C         141.8857  142.3732  168.3488 C.ar    1  UNL1        0.1401
     18 F         142.0569  142.1543  169.8229 F       1  UNL1       -0.2042
     19 C         140.5448  142.7597  167.7988 C.ar    1  UNL1        0.0295
     20 C         140.3736  142.9786  166.3248 C.ar    1  UNL1        0.0025
     21 C         141.4973  144.5712  160.3668 C.ar    1  UNL1        0.1819
     22 C         140.3395  145.3834  159.8671 C.ar    1  UNL1        0.1255
     23 N         140.2443  145.7382  158.4128 N.ar    1  UNL1       -0.2389
     24 C         141.3071  145.2808  157.4581 C.ar    1  UNL1        0.1195
     25 C         142.4649  144.4686  157.9578 C.ar    1  UNL1        0.1198
     26 N         142.5601  144.1138  159.4122 N.ar    1  UNL1       -0.2333
@<TRIPOS>BOND
     1     7     8    1
     2     8     9   ar
     3     9    10   ar
     4    10    11   ar
     5    11     1    1
     6     1    14    1
     7    14    15   ar
     8    15    16   ar
     9    16    17   ar
    10    17    18    1
    11    17    19   ar
    12    19    20   ar
    13     1     2    1
    14     2     3    1
    15     3     4    1
    16     4    21    1
    17    21    22   ar
    18    22    23   ar
    19    23    24   ar
    20    24    25   ar
    21    25    26   ar
    22     4     5    2
    23    11    12   ar
    24    12    13   ar
    25    13     8   ar
    26     5     1    1
    27    20    14   ar
    28    26    21   ar
    29     3     6    1
@<TRIPOS>MOLECULE
*****
 26 29 0 0 0
SMALL
GASTEIGER

@<TRIPOS>ATOM
      1 C         141.8105  139.5208  164.3184 C.3     1  UNL1        0.2542
      2 C         141.1572  138.1814  164.4897 C.3     1  UNL1        0.2573
      3 N         141.0163  137.5575  163.1328 N.pl3   1  UNL1       -0.2136
      4 C         141.5825  138.5113  162.1230 C.2     1  UNL1        0.3356
      5 N         142.0734  139.7246  162.8557 N.2     1  UNL1       -0.0599
      6 H         140.6215  136.6767  162.9391 H       1  UNL1        0.2924
      7 F         144.3134  144.9447  164.8809 F       1  UNL1       -0.2042
      8 C         143.6877  143.5887  164.7403 C.ar    1  UNL1        0.1401
      9 C         144.5528  142.3640  164.7003 C.ar    1  UNL1        0.0295
     10 C         143.9271  141.0080  164.5597 C.ar    1  UNL1        0.0025
     11 C         142.4362  140.8767  164.4590 C.ar    1  UNL1        0.0298
     12 C         141.5711  142.1014  164.4990 C.ar    1  UNL1        0.0025
     13 C         142.1969  143.4574  164.6397 C.ar    1  UNL1        0.0295
     14 C         141.6785  139.6004  165.8105 C.ar    1  UNL1        0.0298
     15 C         140.3934  140.0693  166.4257 C.ar    1  UNL1        0.0025
     16 C         140.2614  140.1489  167.9177 C.ar    1  UNL1        0.0295
     17 C         141.4144  139.7596  168.7945 C.ar    1  UNL1        0.1401
     18 F         141.2824  139.8392  170.2866 F       1  UNL1       -0.2042
     19 C         142.6995  139.2907  168.1793 C.ar    1  UNL1        0.0295
     20 C         142.8316  139.2111  166.6873 C.ar    1  UNL1        0.0025
     21 C         141.6466  138.2904  160.6408 C.ar    1  UNL1        0.1819
     22 C         142.9082  137.7765  160.0129 C.ar    1  UNL1        0.1255
     23 N         142.9723  137.5556  158.5307 N.ar    1  UNL1       -0.2389
     24 C         141.7748  137.8487  157.6762 C.ar    1  UNL1        0.1195
     25 C         140.5132  138.3626  158.3040 C.ar    1  UNL1        0.1198
     26 N         140.4490  138.5835  159.7864 N.ar    1  UNL1       -0.2333
@<TRIPOS>BOND
     1     7     8    1
     2     8     9   ar
     3     9    10   ar
     4    10    11   ar
     5    11     1    1
     6     1    14    1
     7    14    15   ar
     8    15    16   ar
     9    16    17   ar
    10    17    18    1
    11    17    19   ar
    12    19    20   ar
    13     1     2    1
    14     2     3    1
    15     3     4    1
    16     4    21    1
    17    21    22   ar
    18    22    23   ar
    19    23    24   ar
    20    24    25   ar
    21    25    26   ar
    22     4     5    2
    23    11    12   ar
    24    12    13   ar
    25    13     8   ar
    26     5     1    1
    27    20    14   ar
    28    26    21   ar
    29     3     6    1
