@<TRIPOS>MOLECULE
*****
 40 42 0 0 0
SMALL
GASTEIGER

@<TRIPOS>ATOM
      1 C         139.4198  139.6684  160.4811 C.ar    1  UNL1        0.0597
      2 C         139.2925  138.7594  161.6674 C.ar    1  UNL1        0.0423
      3 C         138.5998  139.2386  162.9085 C.ar    1  UNL1        0.1504
      4 C         138.0345  140.6269  162.9633 C.ar    1  UNL1        0.0744
      5 C         138.1618  141.5360  161.7770 C.ar    1  UNL1        0.1416
      6 C         138.8545  141.0567  160.5359 C.ar    1  UNL1        0.0416
      7 N         141.6094  139.2308  159.1527 N.am    1  UNL1       -0.2644
      8 C         140.1125  139.1892  159.2398 C.2     1  UNL1        0.2508
      9 O         139.3083  138.6683  158.0857 O.2     1  UNL1       -0.2698
     10 H         142.1372  139.5726  159.9102 H       1  UNL1        0.1566
     11 N         143.4352  137.3306  156.3029 N.ar    1  UNL1       -0.2357
     12 C         143.3008  138.6976  155.7001 C.ar    1  UNL1        0.0988
     13 C         142.6004  139.5758  156.6943 C.ar    1  UNL1        0.0565
     14 C         142.3021  138.7515  157.9115 C.ar    1  UNL1        0.1557
     15 N         142.8180  137.3640  157.6696 N.ar    1  UNL1       -0.1534
     16 C         144.0746  136.1395  155.6531 C.3     1  UNL1        0.2423
     17 P         143.3589  134.8214  155.6336 P.3     1  UNL1        0.3677
     18 O         142.6433  133.5033  155.6143 O.2     1  UNL1       -0.2557
     19 O         142.6798  135.2090  154.3536 O.3     1  UNL1       -0.2928
     20 C         140.3890  136.1780  155.1040 C.3     1  UNL1        0.0352
     21 C         141.1821  135.2150  154.2712 C.3     1  UNL1        0.1515
     22 O         144.0381  134.4339  156.9138 O.3     1  UNL1       -0.2928
     23 C         144.0086  133.0073  157.3764 C.3     1  UNL1        0.1515
     24 C         145.2687  132.3468  157.8516 C.3     1  UNL1        0.0352
     25 O         138.4724  138.3296  164.0949 O.3     1  UNL1       -0.4347
     26 C         138.7886  138.8411  165.4691 C.ar    1  UNL1        0.2494
     27 C         137.8406  138.5820  166.6023 C.ar    1  UNL1        0.1569
     28 N         138.1567  139.0935  167.9765 N.ar    1  UNL1       -0.2328
     29 C         139.4209  139.8642  168.2174 C.ar    1  UNL1        0.1538
     30 C         140.3688  140.1234  167.0842 C.ar    1  UNL1        0.1258
     31 N         140.0526  139.6118  165.7100 N.ar    1  UNL1       -0.2068
     32 C         139.7371  140.3758  169.5916 C.2     1  UNL1        0.2652
     33 O         139.0917  139.7493  170.7920 O.2     1  UNL1       -0.2684
     34 N         140.6986  141.5140  169.7653 N.am    1  UNL1       -0.2979
     35 C         141.0148  142.0255  171.1395 C.3     1  UNL1        0.1110
     36 H         141.1221  141.9252  168.9774 H       1  UNL1        0.1498
     37 O         137.5965  142.9243  161.8318 O.3     1  UNL1       -0.4791
     38 C         138.1814  143.9357  162.7725 C.3     1  UNL1        0.1661
     39 C         137.7046  144.0025  164.1931 C.3     1  UNL1        0.0472
     40 C         139.2433  144.8803  162.2926 C.3     1  UNL1        0.0472
@<TRIPOS>BOND
     1    20    21    1
     2    21    19    1
     3    19    17    1
     4    17    18    2
     5    17    16    1
     6    16    11    1
     7    11    12   ar
     8    12    13   ar
     9    13    14   ar
    10    14     7    1
    11     7     8   am
    12     8     9    2
    13     8     1    1
    14     1     2   ar
    15     2     3   ar
    16     3    25    1
    17    25    26    1
    18    26    27   ar
    19    27    28   ar
    20    28    29   ar
    21    29    32    1
    22    32    33    2
    23    32    34   am
    24    34    35    1
    25    29    30   ar
    26    30    31   ar
    27     3     4   ar
    28     4     5   ar
    29     5    37    1
    30    37    38    1
    31    38    39    1
    32    38    40    1
    33     5     6   ar
    34    14    15   ar
    35    17    22    1
    36    22    23    1
    37    23    24    1
    38    15    11   ar
    39     6     1   ar
    40    31    26   ar
    41     7    10    1
    42    34    36    1
@<TRIPOS>MOLECULE
*****
 40 42 0 0 0
SMALL
GASTEIGER

@<TRIPOS>ATOM
      1 C         139.4319  139.3675  160.5156 C.ar    1  UNL1        0.0597
      2 C         139.3353  138.4892  161.7277 C.ar    1  UNL1        0.0423
      3 C         138.6511  138.9909  162.9648 C.ar    1  UNL1        0.1504
      4 C         138.0637  140.3708  162.9897 C.ar    1  UNL1        0.0744
      5 C         138.1603  141.2491  161.7776 C.ar    1  UNL1        0.1416
      6 C         138.8444  140.7474  160.5406 C.ar    1  UNL1        0.0416
      7 N         141.6087  138.7203  159.2536 N.am    1  UNL1       -0.2644
      8 C         140.1161  138.8658  159.2785 C.2     1  UNL1        0.2508
      9 O         139.3074  138.5098  158.0664 O.2     1  UNL1       -0.2698
     10 H         142.1394  138.9540  160.0492 H       1  UNL1        0.1566
     11 N         143.3818  136.7597  156.4115 N.ar    1  UNL1       -0.2357
     12 C         143.3095  138.1339  155.8143 C.ar    1  UNL1        0.0988
     13 C         142.6365  139.0356  156.8063 C.ar    1  UNL1        0.0565
     14 C         142.2929  138.2186  158.0165 C.ar    1  UNL1        0.1557
     15 N         142.7535  136.8122  157.7725 N.ar    1  UNL1       -0.1534
     16 C         143.9777  135.5463  155.7617 C.3     1  UNL1        0.2423
     17 P         143.1243  134.3413  155.4976 P.3     1  UNL1        0.3677
     18 O         142.2708  133.1365  155.2334 O.2     1  UNL1       -0.2557
     19 O         143.5761  133.7371  156.7940 O.3     1  UNL1       -0.2928
     20 C         145.3649  132.2273  157.9212 C.3     1  UNL1        0.0352
     21 C         144.4175  132.4952  156.7896 C.3     1  UNL1        0.1515
     22 O         142.6724  134.9457  154.2011 O.3     1  UNL1       -0.2928
     23 C         141.2088  135.0343  153.8848 C.3     1  UNL1        0.1515
     24 C         140.4370  136.2690  154.2452 C.3     1  UNL1        0.0352
     25 O         138.5545  138.1126  164.1770 O.3     1  UNL1       -0.4347
     26 C         138.8314  138.6794  165.5378 C.ar    1  UNL1        0.2494
     27 C         137.8453  138.4763  166.6498 C.ar    1  UNL1        0.1569
     28 N         138.1222  139.0432  168.0107 N.ar    1  UNL1       -0.2328
     29 C         139.3853  139.8131  168.2596 C.ar    1  UNL1        0.1538
     30 C         140.3714  140.0161  167.1476 C.ar    1  UNL1        0.1258
     31 N         140.0944  139.4493  165.7868 N.ar    1  UNL1       -0.2068
     32 C         139.6623  140.3799  169.6204 C.2     1  UNL1        0.2652
     33 O         139.0935  139.7162  170.8394 O.2     1  UNL1       -0.2684
     34 N         140.5081  141.6106  169.7624 N.am    1  UNL1       -0.2979
     35 C         140.7851  142.1775  171.1232 C.3     1  UNL1        0.1110
     36 H         140.8815  142.0463  168.9623 H       1  UNL1        0.1498
     37 O         137.5728  142.6290  161.8025 O.3     1  UNL1       -0.4791
     38 C         138.2212  143.7055  162.6215 C.3     1  UNL1        0.1661
     39 C         139.3321  144.5264  162.0367 C.3     1  UNL1        0.0472
     40 C         137.7586  143.9611  164.0254 C.3     1  UNL1        0.0472
@<TRIPOS>BOND
     1    20    21    1
     2    21    19    1
     3    19    17    1
     4    17    18    2
     5    17    16    1
     6    16    11    1
     7    11    12   ar
     8    12    13   ar
     9    13    14   ar
    10    14     7    1
    11     7     8   am
    12     8     9    2
    13     8     1    1
    14     1     2   ar
    15     2     3   ar
    16     3    25    1
    17    25    26    1
    18    26    27   ar
    19    27    28   ar
    20    28    29   ar
    21    29    32    1
    22    32    33    2
    23    32    34   am
    24    34    35    1
    25    29    30   ar
    26    30    31   ar
    27     3     4   ar
    28     4     5   ar
    29     5    37    1
    30    37    38    1
    31    38    39    1
    32    38    40    1
    33     5     6   ar
    34    14    15   ar
    35    17    22    1
    36    22    23    1
    37    23    24    1
    38    15    11   ar
    39     6     1   ar
    40    31    26   ar
    41     7    10    1
    42    34    36    1
@<TRIPOS>MOLECULE
*****
 40 42 0 0 0
SMALL
GASTEIGER

@<TRIPOS>ATOM
      1 C         139.0299  140.5922  160.5194 C.ar    1  UNL1        0.0597
      2 C         138.9075  139.5642  161.6049 C.ar    1  UNL1        0.0423
      3 C         138.3822  139.9569  162.9539 C.ar    1  UNL1        0.1504
      4 C         137.9794  141.3776  163.2174 C.ar    1  UNL1        0.0744
      5 C         138.1019  142.4056  162.1319 C.ar    1  UNL1        0.1416
      6 C         138.6271  142.0128  160.7829 C.ar    1  UNL1        0.0416
      7 N         139.0610  138.9474  158.5084 N.am    1  UNL1       -0.2644
      8 C         139.5552  140.1995  159.1703 C.2     1  UNL1        0.2508
      9 O         140.5747  141.0588  158.4832 O.2     1  UNL1       -0.2698
     10 H         138.3919  138.3834  158.9594 H       1  UNL1        0.1566
     11 N         140.9342  137.5458  155.4113 N.ar    1  UNL1       -0.2357
     12 C         139.8549  138.3551  154.7554 C.ar    1  UNL1        0.0988
     13 C         139.0218  138.9787  155.8359 C.ar    1  UNL1        0.0565
     14 C         139.5863  138.5547  157.1594 C.ar    1  UNL1        0.1557
     15 N         140.7682  137.6692  156.8970 N.ar    1  UNL1       -0.1534
     16 C         141.9935  136.7525  154.7054 C.3     1  UNL1        0.2423
     17 P         143.4238  136.8516  155.1465 P.3     1  UNL1        0.3677
     18 O         144.8540  136.9507  155.5876 O.2     1  UNL1       -0.2557
     19 O         143.5377  138.1890  154.4768 O.3     1  UNL1       -0.2928
     20 C         143.3256  140.2025  156.1049 C.3     1  UNL1        0.0352
     21 C         144.1623  139.3418  155.2055 C.3     1  UNL1        0.1515
     22 O         143.3099  135.5142  155.8162 O.3     1  UNL1       -0.2928
     23 C         142.9373  134.3029  155.0136 C.3     1  UNL1        0.1515
     24 C         142.2863  133.1298  155.6845 C.3     1  UNL1        0.0352
     25 O         138.2597  138.9290  164.0394 O.3     1  UNL1       -0.4347
     26 C         138.6829  139.2625  165.4393 C.ar    1  UNL1        0.2494
     27 C         137.8631  138.7901  166.6033 C.ar    1  UNL1        0.1569
     28 N         138.2863  139.1236  168.0032 N.ar    1  UNL1       -0.2328
     29 C         139.5293  139.9295  168.2391 C.ar    1  UNL1        0.1538
     30 C         140.3491  140.4018  167.0751 C.ar    1  UNL1        0.1258
     31 N         139.9259  140.0683  165.6752 N.ar    1  UNL1       -0.2068
     32 C         139.9525  140.2630  169.6390 C.2     1  UNL1        0.2652
     33 O         139.1186  139.8134  170.8018 O.2     1  UNL1       -0.2684
     34 N         141.2098  141.0462  169.8759 N.am    1  UNL1       -0.2979
     35 C         141.6330  141.3797  171.2758 C.3     1  UNL1        0.1110
     36 H         141.7571  141.3413  169.1127 H       1  UNL1        0.1498
     37 O         137.6991  143.8262  162.3954 O.3     1  UNL1       -0.4791
     38 C         138.6629  144.7696  163.0519 C.3     1  UNL1        0.1661
     39 C         139.4756  145.7135  162.2161 C.3     1  UNL1        0.0472
     40 C         138.8140  144.7692  164.5443 C.3     1  UNL1        0.0472
@<TRIPOS>BOND
     1    20    21    1
     2    21    19    1
     3    19    17    1
     4    17    18    2
     5    17    16    1
     6    16    11    1
     7    11    12   ar
     8    12    13   ar
     9    13    14   ar
    10    14     7    1
    11     7     8   am
    12     8     9    2
    13     8     1    1
    14     1     2   ar
    15     2     3   ar
    16     3    25    1
    17    25    26    1
    18    26    27   ar
    19    27    28   ar
    20    28    29   ar
    21    29    32    1
    22    32    33    2
    23    32    34   am
    24    34    35    1
    25    29    30   ar
    26    30    31   ar
    27     3     4   ar
    28     4     5   ar
    29     5    37    1
    30    37    38    1
    31    38    39    1
    32    38    40    1
    33     5     6   ar
    34    14    15   ar
    35    17    22    1
    36    22    23    1
    37    23    24    1
    38    15    11   ar
    39     6     1   ar
    40    31    26   ar
    41     7    10    1
    42    34    36    1
@<TRIPOS>MOLECULE
*****
 40 42 0 0 0
SMALL
GASTEIGER

@<TRIPOS>ATOM
      1 C         139.0911  140.6398  160.5049 C.ar    1  UNL1        0.0597
      2 C         138.9684  139.6055  161.5843 C.ar    1  UNL1        0.0423
      3 C         138.4342  139.9884  162.9326 C.ar    1  UNL1        0.1504
      4 C         138.0225  141.4056  163.2014 C.ar    1  UNL1        0.0744
      5 C         138.1451  142.4398  162.1219 C.ar    1  UNL1        0.1416
      6 C         138.6794  142.0569  160.7737 C.ar    1  UNL1        0.0416
      7 N         138.9232  139.2124  158.3405 N.am    1  UNL1       -0.2644
      8 C         139.6254  140.2569  159.1565 C.2     1  UNL1        0.2508
      9 O         140.8619  140.9186  158.6243 O.2     1  UNL1       -0.2698
     10 H         138.1116  138.7782  158.6898 H       1  UNL1        0.1566
     11 N         140.7697  137.7757  155.2434 N.ar    1  UNL1       -0.2357
     12 C         139.7895  138.7052  154.5911 C.ar    1  UNL1        0.0988
     13 C         138.9785  139.3565  155.6719 C.ar    1  UNL1        0.0565
     14 C         139.4575  138.8296  156.9921 C.ar    1  UNL1        0.1557
     15 N         140.5645  137.8527  156.7273 N.ar    1  UNL1       -0.1534
     16 C         141.7781  136.9198  154.5360 C.3     1  UNL1        0.2423
     17 P         143.1354  136.7069  155.1380 P.3     1  UNL1        0.3677
     18 O         144.4928  136.4941  155.7398 O.2     1  UNL1       -0.2557
     19 O         142.7161  135.3434  155.6016 O.3     1  UNL1       -0.2928
     20 C         143.2068  133.3390  157.1799 C.3     1  UNL1        0.0352
     21 C         143.6979  134.4569  156.3087 C.3     1  UNL1        0.1515
     22 O         143.5548  138.0705  154.6743 O.3     1  UNL1       -0.2928
     23 C         144.0130  139.0936  155.6710 C.3     1  UNL1        0.1515
     24 C         143.2826  140.3976  155.7970 C.3     1  UNL1        0.0352
     25 O         138.3115  138.9542  164.0121 O.3     1  UNL1       -0.4347
     26 C         138.7279  139.2818  165.4154 C.ar    1  UNL1        0.2494
     27 C         137.8737  138.8516  166.5710 C.ar    1  UNL1        0.1569
     28 N         138.2901  139.1793  167.9743 N.ar    1  UNL1       -0.2328
     29 C         139.5607  139.9371  168.2221 C.ar    1  UNL1        0.1538
     30 C         140.4148  140.3673  167.0665 C.ar    1  UNL1        0.1258
     31 N         139.9984  140.0396  165.6632 N.ar    1  UNL1       -0.2068
     32 C         139.9771  140.2648  169.6254 C.2     1  UNL1        0.2652
     33 O         139.2100  139.7034  170.7857 O.2     1  UNL1       -0.2684
     34 N         141.1605  141.1539  169.8683 N.am    1  UNL1       -0.2979
     35 C         141.5769  141.4815  171.2716 C.3     1  UNL1        0.1110
     36 H         141.6640  141.5224  169.1067 H       1  UNL1        0.1498
     37 O         137.7334  143.8569  162.3908 O.3     1  UNL1       -0.4791
     38 C         138.6858  144.7996  163.0648 C.3     1  UNL1        0.1661
     39 C         138.7903  144.8175  164.5611 C.3     1  UNL1        0.0472
     40 C         139.5336  145.7244  162.2426 C.3     1  UNL1        0.0472
@<TRIPOS>BOND
     1    20    21    1
     2    21    19    1
     3    19    17    1
     4    17    18    2
     5    17    16    1
     6    16    11    1
     7    11    12   ar
     8    12    13   ar
     9    13    14   ar
    10    14     7    1
    11     7     8   am
    12     8     9    2
    13     8     1    1
    14     1     2   ar
    15     2     3   ar
    16     3    25    1
    17    25    26    1
    18    26    27   ar
    19    27    28   ar
    20    28    29   ar
    21    29    32    1
    22    32    33    2
    23    32    34   am
    24    34    35    1
    25    29    30   ar
    26    30    31   ar
    27     3     4   ar
    28     4     5   ar
    29     5    37    1
    30    37    38    1
    31    38    39    1
    32    38    40    1
    33     5     6   ar
    34    14    15   ar
    35    17    22    1
    36    22    23    1
    37    23    24    1
    38    15    11   ar
    39     6     1   ar
    40    31    26   ar
    41     7    10    1
    42    34    36    1
@<TRIPOS>MOLECULE
*****
 40 42 0 0 0
SMALL
GASTEIGER

@<TRIPOS>ATOM
      1 C         137.7184  141.8245  157.5738 C.ar    1  UNL1        0.0597
      2 C         136.6518  141.1051  156.8026 C.ar    1  UNL1        0.0423
      3 C         136.0883  141.7155  155.5537 C.ar    1  UNL1        0.1504
      4 C         136.5914  143.0455  155.0760 C.ar    1  UNL1        0.0744
      5 C         137.6580  143.7649  155.8472 C.ar    1  UNL1        0.1416
      6 C         138.2215  143.1545  157.0961 C.ar    1  UNL1        0.0416
      7 N         137.6923  139.9484  159.3710 N.am    1  UNL1       -0.2644
      8 C         138.2819  141.2141  158.8228 C.2     1  UNL1        0.2508
      9 O         139.4349  141.8694  159.5236 O.2     1  UNL1       -0.2698
     10 H         136.9356  139.5184  158.9110 H       1  UNL1        0.1566
     11 N         138.6864  138.8452  162.9571 N.ar    1  UNL1       -0.2357
     12 C         139.5597  137.9520  162.1265 C.ar    1  UNL1        0.0988
     13 C         139.2935  138.2566  160.6820 C.ar    1  UNL1        0.0565
     14 C         138.2559  139.3380  160.6199 C.ar    1  UNL1        0.1557
     15 N         137.8807  139.7017  162.0259 N.ar    1  UNL1       -0.1534
     16 C         138.6290  138.8763  164.4556 C.3     1  UNL1        0.2423
     17 P         139.3976  139.9174  165.2142 P.3     1  UNL1        0.3677
     18 O         140.1662  140.9585  165.9728 O.2     1  UNL1       -0.2557
     19 O         140.5640  138.9800  165.3190 O.3     1  UNL1       -0.2928
     20 C         143.0397  138.6898  166.0513 C.3     1  UNL1        0.0352
     21 C         141.6767  139.2721  166.2816 C.3     1  UNL1        0.1515
     22 O         138.2312  140.8548  165.1093 O.3     1  UNL1       -0.2928
     23 C         138.4638  142.3186  164.8790 C.3     1  UNL1        0.1515
     24 C         138.0996  142.9378  163.5622 C.3     1  UNL1        0.0352
     25 O         135.0217  140.9961  154.7825 O.3     1  UNL1       -0.4347
     26 C         133.8321  140.4284  155.4985 C.ar    1  UNL1        0.2494
     27 C         132.5551  141.2122  155.5693 C.ar    1  UNL1        0.1569
     28 N         131.3655  140.6446  156.2853 N.ar    1  UNL1       -0.2328
     29 C         131.4530  139.2932  156.9305 C.ar    1  UNL1        0.1538
     30 C         132.7300  138.5095  156.8596 C.ar    1  UNL1        0.1258
     31 N         133.9196  139.0771  156.1436 N.ar    1  UNL1       -0.2068
     32 C         130.2634  138.7255  157.6465 C.2     1  UNL1        0.2652
     33 O         129.6473  137.4413  157.1761 O.2     1  UNL1       -0.2684
     34 N         129.6898  139.4422  158.8329 N.am    1  UNL1       -0.2979
     35 C         128.5002  138.8745  159.5490 C.3     1  UNL1        0.1110
     36 H         130.0942  140.2850  159.1417 H       1  UNL1        0.1498
     37 O         138.1611  145.0948  155.3695 O.3     1  UNL1       -0.4791
     38 C         139.5788  145.5022  155.6417 C.3     1  UNL1        0.1661
     39 C         139.8818  146.4715  156.7457 C.3     1  UNL1        0.0472
     40 C         140.6935  144.9404  154.8099 C.3     1  UNL1        0.0472
@<TRIPOS>BOND
     1    20    21    1
     2    21    19    1
     3    19    17    1
     4    17    18    2
     5    17    16    1
     6    16    11    1
     7    11    12   ar
     8    12    13   ar
     9    13    14   ar
    10    14     7    1
    11     7     8   am
    12     8     9    2
    13     8     1    1
    14     1     2   ar
    15     2     3   ar
    16     3    25    1
    17    25    26    1
    18    26    27   ar
    19    27    28   ar
    20    28    29   ar
    21    29    32    1
    22    32    33    2
    23    32    34   am
    24    34    35    1
    25    29    30   ar
    26    30    31   ar
    27     3     4   ar
    28     4     5   ar
    29     5    37    1
    30    37    38    1
    31    38    39    1
    32    38    40    1
    33     5     6   ar
    34    14    15   ar
    35    17    22    1
    36    22    23    1
    37    23    24    1
    38    15    11   ar
    39     6     1   ar
    40    31    26   ar
    41     7    10    1
    42    34    36    1
@<TRIPOS>MOLECULE
*****
 40 42 0 0 0
SMALL
GASTEIGER

@<TRIPOS>ATOM
      1 C         138.1601  141.4983  157.7539 C.ar    1  UNL1        0.0597
      2 C         137.0586  140.8422  156.9754 C.ar    1  UNL1        0.0423
      3 C         136.7566  141.2937  155.5773 C.ar    1  UNL1        0.1504
      4 C         137.5562  142.4013  154.9576 C.ar    1  UNL1        0.0744
      5 C         138.6578  143.0573  155.7361 C.ar    1  UNL1        0.1416
      6 C         138.9597  142.6058  157.1343 C.ar    1  UNL1        0.0416
      7 N         137.6793  139.9224  159.7628 N.am    1  UNL1       -0.2644
      8 C         138.4621  141.0468  159.1522 C.2     1  UNL1        0.2508
      9 O         139.5470  141.7198  159.9398 O.2     1  UNL1       -0.2698
     10 H         136.9673  139.4807  159.2459 H       1  UNL1        0.1566
     11 N         138.2061  139.4356  163.5774 N.ar    1  UNL1       -0.2357
     12 C         138.6860  138.1167  163.0479 C.ar    1  UNL1        0.0988
     13 C         138.5471  138.1386  161.5545 C.ar    1  UNL1        0.0565
     14 C         137.9813  139.4710  161.1611 C.ar    1  UNL1        0.1557
     15 N         137.7706  140.2725  162.4113 N.ar    1  UNL1       -0.1534
     16 C         138.1683  139.8455  165.0198 C.3     1  UNL1        0.2423
     17 P         139.2945  140.6478  165.6013 P.3     1  UNL1        0.3677
     18 O         140.4207  141.4500  166.1828 O.2     1  UNL1       -0.2557
     19 O         138.6182  141.9136  165.1648 O.3     1  UNL1       -0.2928
     20 C         138.8888  144.4971  165.2089 C.3     1  UNL1        0.0352
     21 C         139.4340  143.1394  164.8784 C.3     1  UNL1        0.1515
     22 O         139.9707  139.3820  166.0378 O.3     1  UNL1       -0.2928
     23 C         141.4325  139.1810  165.7677 C.3     1  UNL1        0.1515
     24 C         141.8816  138.0829  164.8498 C.3     1  UNL1        0.0352
     25 O         135.6550  140.6376  154.7987 O.3     1  UNL1       -0.4347
     26 C         134.3560  140.3058  155.4713 C.ar    1  UNL1        0.2494
     27 C         133.2184  141.2826  155.4288 C.ar    1  UNL1        0.1569
     28 N         131.9194  140.9508  156.1014 N.ar    1  UNL1       -0.2328
     29 C         131.7580  139.6421  156.8166 C.ar    1  UNL1        0.1538
     30 C         132.8955  138.6654  156.8591 C.ar    1  UNL1        0.1258
     31 N         134.1946  138.9972  156.1864 N.ar    1  UNL1       -0.2068
     32 C         130.4590  139.3103  157.4892 C.2     1  UNL1        0.2652
     33 O         130.4214  138.2850  158.5835 O.2     1  UNL1       -0.2684
     34 N         129.1974  140.0037  157.0675 N.am    1  UNL1       -0.2979
     35 C         127.8984  139.6719  157.7402 C.3     1  UNL1        0.1110
     36 H         129.2221  140.6767  156.3493 H       1  UNL1        0.1498
     37 O         139.4574  144.1649  155.1164 O.3     1  UNL1       -0.4791
     38 C         139.3740  145.5540  155.6761 C.3     1  UNL1        0.1661
     39 C         140.2880  145.9697  156.7904 C.3     1  UNL1        0.0472
     40 C         138.3765  146.5274  155.1216 C.3     1  UNL1        0.0472
@<TRIPOS>BOND
     1    20    21    1
     2    21    19    1
     3    19    17    1
     4    17    18    2
     5    17    16    1
     6    16    11    1
     7    11    12   ar
     8    12    13   ar
     9    13    14   ar
    10    14     7    1
    11     7     8   am
    12     8     9    2
    13     8     1    1
    14     1     2   ar
    15     2     3   ar
    16     3    25    1
    17    25    26    1
    18    26    27   ar
    19    27    28   ar
    20    28    29   ar
    21    29    32    1
    22    32    33    2
    23    32    34   am
    24    34    35    1
    25    29    30   ar
    26    30    31   ar
    27     3     4   ar
    28     4     5   ar
    29     5    37    1
    30    37    38    1
    31    38    39    1
    32    38    40    1
    33     5     6   ar
    34    14    15   ar
    35    17    22    1
    36    22    23    1
    37    23    24    1
    38    15    11   ar
    39     6     1   ar
    40    31    26   ar
    41     7    10    1
    42    34    36    1
@<TRIPOS>MOLECULE
*****
 40 42 0 0 0
SMALL
GASTEIGER

@<TRIPOS>ATOM
      1 C         138.2920  142.2639  158.2651 C.ar    1  UNL1        0.0597
      2 C         137.3808  141.3600  157.4889 C.ar    1  UNL1        0.0423
      3 C         137.2902  141.4879  155.9971 C.ar    1  UNL1        0.1504
      4 C         138.1109  142.5197  155.2816 C.ar    1  UNL1        0.0744
      5 C         139.0221  143.4236  156.0579 C.ar    1  UNL1        0.1416
      6 C         139.1126  143.2957  157.5496 C.ar    1  UNL1        0.0416
      7 N         138.7195  143.3347  160.5934 N.am    1  UNL1       -0.2644
      8 C         138.3826  142.1360  159.7570 C.2     1  UNL1        0.2508
      9 O         138.1362  140.8095  160.4124 O.2     1  UNL1       -0.2698
     10 H         138.8812  144.2054  160.1632 H       1  UNL1        0.1566
     11 N         139.6938  142.9338  164.3291 N.ar    1  UNL1       -0.2357
     12 C         138.2051  143.0864  164.4326 C.ar    1  UNL1        0.0988
     13 C         137.6590  143.2551  163.0457 C.ar    1  UNL1        0.0565
     14 C         138.8101  143.2069  162.0852 C.ar    1  UNL1        0.1557
     15 N         140.0677  143.0083  162.8784 N.ar    1  UNL1       -0.1534
     16 C         140.6420  142.7407  165.4751 C.3     1  UNL1        0.2423
     17 P         141.1483  141.3682  165.8067 P.3     1  UNL1        0.3677
     18 O         141.6545  139.9957  166.1383 O.2     1  UNL1       -0.2557
     19 O         142.3971  141.6390  165.0211 O.3     1  UNL1       -0.2928
     20 C         144.6079  142.9800  164.7681 C.3     1  UNL1        0.0352
     21 C         143.2140  142.8635  165.3097 C.3     1  UNL1        0.1515
     22 O         139.8994  141.0975  166.5923 O.3     1  UNL1       -0.2928
     23 C         139.3350  139.7088  166.6485 C.3     1  UNL1        0.1515
     24 C         138.0964  139.3707  165.8731 C.3     1  UNL1        0.0352
     25 O         136.3790  140.5840  155.2208 O.3     1  UNL1       -0.4347
     26 C         134.9503  140.4149  155.6455 C.ar    1  UNL1        0.2494
     27 C         133.9489  141.4933  155.3551 C.ar    1  UNL1        0.1569
     28 N         132.5202  141.3242  155.7798 N.ar    1  UNL1       -0.2328
     29 C         132.0930  140.0767  156.4949 C.ar    1  UNL1        0.1538
     30 C         133.0944  138.9983  156.7852 C.ar    1  UNL1        0.1258
     31 N         134.5230  139.1674  156.3605 N.ar    1  UNL1       -0.2068
     32 C         130.6643  139.9076  156.9196 C.2     1  UNL1        0.2652
     33 O         129.5542  140.2848  155.9841 O.2     1  UNL1       -0.2684
     34 N         130.3459  139.3613  158.2798 N.am    1  UNL1       -0.2979
     35 C         128.9173  139.1922  158.7045 C.3     1  UNL1        0.1110
     36 H         131.0746  139.1137  158.8938 H       1  UNL1        0.1498
     37 O         139.8427  144.4553  155.3424 O.3     1  UNL1       -0.4791
     38 C         140.2141  145.7319  156.0369 C.3     1  UNL1        0.1661
     39 C         139.2403  146.8720  156.0819 C.3     1  UNL1        0.0472
     40 C         141.5593  145.8685  156.6864 C.3     1  UNL1        0.0472
@<TRIPOS>BOND
     1    20    21    1
     2    21    19    1
     3    19    17    1
     4    17    18    2
     5    17    16    1
     6    16    11    1
     7    11    12   ar
     8    12    13   ar
     9    13    14   ar
    10    14     7    1
    11     7     8   am
    12     8     9    2
    13     8     1    1
    14     1     2   ar
    15     2     3   ar
    16     3    25    1
    17    25    26    1
    18    26    27   ar
    19    27    28   ar
    20    28    29   ar
    21    29    32    1
    22    32    33    2
    23    32    34   am
    24    34    35    1
    25    29    30   ar
    26    30    31   ar
    27     3     4   ar
    28     4     5   ar
    29     5    37    1
    30    37    38    1
    31    38    39    1
    32    38    40    1
    33     5     6   ar
    34    14    15   ar
    35    17    22    1
    36    22    23    1
    37    23    24    1
    38    15    11   ar
    39     6     1   ar
    40    31    26   ar
    41     7    10    1
    42    34    36    1
@<TRIPOS>MOLECULE
*****
 40 42 0 0 0
SMALL
GASTEIGER

@<TRIPOS>ATOM
      1 C         140.2536  139.3837  161.4531 C.ar    1  UNL1        0.0597
      2 C         141.3138  138.7524  160.6003 C.ar    1  UNL1        0.0423
      3 C         141.0854  138.5751  159.1285 C.ar    1  UNL1        0.1504
      4 C         139.7968  139.0292  158.5094 C.ar    1  UNL1        0.0744
      5 C         138.7366  139.6606  159.3623 C.ar    1  UNL1        0.1416
      6 C         138.9650  139.8378  160.8341 C.ar    1  UNL1        0.0416
      7 N         139.6334  140.5205  163.7055 N.am    1  UNL1       -0.2644
      8 C         140.4820  139.5610  162.9251 C.2     1  UNL1        0.2508
      9 O         141.5590  138.7787  163.6165 O.2     1  UNL1       -0.2698
     10 H         138.9265  141.0339  163.2517 H       1  UNL1        0.1566
     11 N         139.6263  140.5266  167.5869 N.ar    1  UNL1       -0.2357
     12 C         140.8003  141.4145  167.2978 C.ar    1  UNL1        0.0988
     13 C         140.9458  141.5203  165.8086 C.ar    1  UNL1        0.0565
     14 C         139.8618  140.6978  165.1774 C.ar    1  UNL1        0.1557
     15 N         139.0464  140.0837  166.2765 N.ar    1  UNL1       -0.1534
     16 C         139.1211  140.1482  168.9476 C.3     1  UNL1        0.2423
     17 P         139.9220  140.4937  170.1679 P.3     1  UNL1        0.3677
     18 O         140.7227  140.8394  171.3883 O.2     1  UNL1       -0.2557
     19 O         140.7299  139.2422  169.9922 O.3     1  UNL1       -0.2928
     20 C         143.0463  138.0971  170.2622 C.3     1  UNL1        0.0352
     21 C         142.2276  139.3156  169.9541 C.3     1  UNL1        0.1515
     22 O         139.1139  141.7453  170.3436 O.3     1  UNL1       -0.2928
     23 C         139.7760  143.0052  170.8174 C.3     1  UNL1        0.1515
     24 C         140.3822  143.9528  169.8251 C.3     1  UNL1        0.0352
     25 O         142.1457  137.9438  158.2756 O.3     1  UNL1       -0.4347
     26 C         143.1751  138.8015  157.6014 C.ar    1  UNL1        0.2494
     27 C         143.6251  140.0793  158.2454 C.ar    1  UNL1        0.1569
     28 N         144.6545  140.9370  157.5711 N.ar    1  UNL1       -0.2328
     29 C         145.2340  140.5168  156.2529 C.ar    1  UNL1        0.1538
     30 C         144.7841  139.2390  155.6089 C.ar    1  UNL1        0.1258
     31 N         143.7546  138.3813  156.2832 N.ar    1  UNL1       -0.2068
     32 C         146.2635  141.3745  155.5787 C.2     1  UNL1        0.2652
     33 O         146.9906  142.4280  156.3605 O.2     1  UNL1       -0.2684
     34 N         146.5657  141.1787  154.1225 N.am    1  UNL1       -0.2979
     35 C         147.5952  142.0364  153.4482 C.3     1  UNL1        0.1110
     36 H         146.0885  140.4872  153.6093 H       1  UNL1        0.1498
     37 O         137.4479  140.1147  158.7432 O.3     1  UNL1       -0.4791
     38 C         137.4587  141.1707  157.6780 C.3     1  UNL1        0.1661
     39 C         136.6967  140.9583  156.4036 C.3     1  UNL1        0.0472
     40 C         138.2316  142.4391  157.8872 C.3     1  UNL1        0.0472
@<TRIPOS>BOND
     1    20    21    1
     2    21    19    1
     3    19    17    1
     4    17    18    2
     5    17    16    1
     6    16    11    1
     7    11    12   ar
     8    12    13   ar
     9    13    14   ar
    10    14     7    1
    11     7     8   am
    12     8     9    2
    13     8     1    1
    14     1     2   ar
    15     2     3   ar
    16     3    25    1
    17    25    26    1
    18    26    27   ar
    19    27    28   ar
    20    28    29   ar
    21    29    32    1
    22    32    33    2
    23    32    34   am
    24    34    35    1
    25    29    30   ar
    26    30    31   ar
    27     3     4   ar
    28     4     5   ar
    29     5    37    1
    30    37    38    1
    31    38    39    1
    32    38    40    1
    33     5     6   ar
    34    14    15   ar
    35    17    22    1
    36    22    23    1
    37    23    24    1
    38    15    11   ar
    39     6     1   ar
    40    31    26   ar
    41     7    10    1
    42    34    36    1
@<TRIPOS>MOLECULE
*****
 40 42 0 0 0
SMALL
GASTEIGER

@<TRIPOS>ATOM
      1 C         141.6597  137.8898  157.7733 C.ar    1  UNL1        0.0597
      2 C         142.6402  136.9181  157.1867 C.ar    1  UNL1        0.0423
      3 C         142.2057  135.9759  156.1035 C.ar    1  UNL1        0.1504
      4 C         140.7906  136.0055  155.6069 C.ar    1  UNL1        0.0744
      5 C         139.8100  136.9772  156.1935 C.ar    1  UNL1        0.1416
      6 C         140.2446  137.9194  157.2767 C.ar    1  UNL1        0.0416
      7 N         143.5296  139.2575  158.9493 N.am    1  UNL1       -0.2644
      8 C         142.0942  138.8321  158.8566 C.2     1  UNL1        0.2508
      9 O         141.0933  139.3488  159.8472 O.2     1  UNL1       -0.2698
     10 H         144.1865  138.9184  158.2992 H       1  UNL1        0.1566
     11 N         144.6924  141.0739  162.1765 N.ar    1  UNL1       -0.2357
     12 C         144.5731  142.2255  161.2227 C.ar    1  UNL1        0.0988
     13 C         144.1229  141.6852  159.8977 C.ar    1  UNL1        0.0565
     14 C         143.9641  140.1998  160.0326 C.ar    1  UNL1        0.1557
     15 N         144.3161  139.8220  161.4410 N.ar    1  UNL1       -0.1534
     16 C         145.1141  141.1593  163.6133 C.3     1  UNL1        0.2423
     17 P         144.0895  141.3968  164.6829 P.3     1  UNL1        0.3677
     18 O         143.0650  141.6342  165.7524 O.2     1  UNL1       -0.2557
     19 O         144.3911  142.8656  164.6458 O.3     1  UNL1       -0.2928
     20 C         143.6671  145.1535  163.6501 C.3     1  UNL1        0.0352
     21 C         143.3114  143.8442  164.2899 C.3     1  UNL1        0.1515
     22 O         143.7879  139.9278  164.7200 O.3     1  UNL1       -0.2928
     23 C         143.1992  139.3140  165.9556 C.3     1  UNL1        0.1515
     24 C         143.8001  138.0667  166.5328 C.3     1  UNL1        0.0352
     25 O         143.1862  135.0041  155.5168 O.3     1  UNL1       -0.4347
     26 C         143.2907  133.6154  156.0741 C.ar    1  UNL1        0.2494
     27 C         142.3225  132.5567  155.6362 C.ar    1  UNL1        0.1569
     28 N         142.4270  131.1680  156.1936 N.ar    1  UNL1       -0.2328
     29 C         143.4997  130.8381  157.1889 C.ar    1  UNL1        0.1538
     30 C         144.4679  131.8968  157.6267 C.ar    1  UNL1        0.1258
     31 N         144.3634  133.2855  157.0694 N.ar    1  UNL1       -0.2068
     32 C         143.6042  129.4494  157.7462 C.2     1  UNL1        0.2652
     33 O         144.2767  129.2201  159.0673 O.2     1  UNL1       -0.2684
     34 N         143.0362  128.2900  156.9825 N.am    1  UNL1       -0.2979
     35 C         143.1407  126.9013  157.5399 C.3     1  UNL1        0.1110
     36 H         142.5948  128.4405  156.1154 H       1  UNL1        0.1498
     37 O         138.3949  137.0068  155.6969 O.3     1  UNL1       -0.4791
     38 C         138.0412  137.8211  154.4879 C.3     1  UNL1        0.1661
     39 C         139.0903  138.6515  153.8097 C.3     1  UNL1        0.0472
     40 C         136.6384  137.8051  153.9570 C.3     1  UNL1        0.0472
@<TRIPOS>BOND
     1    20    21    1
     2    21    19    1
     3    19    17    1
     4    17    18    2
     5    17    16    1
     6    16    11    1
     7    11    12   ar
     8    12    13   ar
     9    13    14   ar
    10    14     7    1
    11     7     8   am
    12     8     9    2
    13     8     1    1
    14     1     2   ar
    15     2     3   ar
    16     3    25    1
    17    25    26    1
    18    26    27   ar
    19    27    28   ar
    20    28    29   ar
    21    29    32    1
    22    32    33    2
    23    32    34   am
    24    34    35    1
    25    29    30   ar
    26    30    31   ar
    27     3     4   ar
    28     4     5   ar
    29     5    37    1
    30    37    38    1
    31    38    39    1
    32    38    40    1
    33     5     6   ar
    34    14    15   ar
    35    17    22    1
    36    22    23    1
    37    23    24    1
    38    15    11   ar
    39     6     1   ar
    40    31    26   ar
    41     7    10    1
    42    34    36    1
