@<TRIPOS>MOLECULE
*****
 35 39 0 0 0
SMALL
GASTEIGER

@<TRIPOS>ATOM
      1 N         142.9666  138.4140  165.6944 N.pl3   1  UNL1       -0.3058
      2 H         143.8150  137.9163  165.6528 H       1  UNL1        0.1495
      3 C         142.6421  139.2435  166.9014 C.ar    1  UNL1        0.1981
      4 N         143.0393  138.9365  168.3149 N.ar    1  UNL1       -0.2138
      5 C         142.5061  140.0289  169.1938 C.ar    1  UNL1        0.0999
      6 C         142.5884  140.2562  170.6742 C.ar    1  UNL1        0.0207
      7 C         141.9441  141.4655  171.2842 C.ar    1  UNL1        0.0016
      8 C         141.2174  142.4476  170.4139 C.ar    1  UNL1        0.0016
      9 C         141.1351  142.2204  168.9335 C.ar    1  UNL1        0.0188
     10 C         141.7794  141.0110  168.3235 C.ar    1  UNL1        0.0801
     11 N         141.8635  140.5256  166.9067 N.ar    1  UNL1       -0.2956
     12 C         141.2727  141.2033  165.7060 C.3     1  UNL1        0.1354
     13 C         142.0472  142.2695  164.9897 C.ar    1  UNL1        0.0006
     14 C         143.3681  142.7293  165.5318 C.ar    1  UNL1       -0.0001
     15 C         144.1427  143.7956  164.8155 C.ar    1  UNL1        0.0294
     16 C         143.5964  144.4020  163.5569 C.ar    1  UNL1        0.1401
     17 F         144.3710  145.4682  162.8406 F       1  UNL1       -0.2042
     18 C         142.2756  143.9422  163.0148 C.ar    1  UNL1        0.0294
     19 C         141.5010  142.8759  163.7312 C.ar    1  UNL1       -0.0001
     20 N         140.0623  138.2007  162.2638 N.3     1  UNL1       -0.2723
     21 C         139.7046  137.5938  163.5881 C.3     1  UNL1        0.0738
     22 C         140.6727  137.6649  164.7317 C.3     1  UNL1        0.0369
     23 C         141.9985  138.3429  164.5509 C.3     1  UNL1        0.0745
     24 C         142.3562  138.9497  163.2265 C.3     1  UNL1        0.0369
     25 C         141.3881  138.8786  162.0830 C.3     1  UNL1        0.0738
     26 C         139.0942  138.1295  161.1202 C.3     1  UNL1        0.0768
     27 C         137.8653  138.9897  161.1232 C.3     1  UNL1        0.0437
     28 C         138.0086  143.1116  162.9231 C.ar    1  UNL1        0.1387
     29 C         138.3321  142.9153  161.4716 C.ar    1  UNL1        0.0366
     30 C         138.2844  141.5414  160.8716 C.ar    1  UNL1       -0.0011
     31 C         137.9131  140.3636  161.7232 C.ar    1  UNL1       -0.0206
     32 C         137.5895  140.5599  163.1747 C.ar    1  UNL1       -0.0011
     33 C         137.6373  141.9339  163.7746 C.ar    1  UNL1        0.0366
     34 C         138.5242  144.6710  164.9361 C.3     1  UNL1        0.2525
     35 O         138.0564  144.4855  163.5230 O.3     1  UNL1       -0.4714
@<TRIPOS>BOND
     1    34    35    1
     2    35    28    1
     3    28    29   ar
     4    29    30   ar
     5    30    31   ar
     6    31    27    1
     7    27    26    1
     8    26    20    1
     9    20    21    1
    10    21    22    1
    11    22    23    1
    12    23     1    1
    13     1     3    1
    14     3     4   ar
    15     4     5   ar
    16     5     6   ar
    17     6     7   ar
    18     7     8   ar
    19     8     9   ar
    20     9    10   ar
    21    10    11   ar
    22    11    12    1
    23    12    13    1
    24    13    14   ar
    25    14    15   ar
    26    15    16   ar
    27    16    17    1
    28    16    18   ar
    29    18    19   ar
    30    23    24    1
    31    24    25    1
    32    31    32   ar
    33    32    33   ar
    34    33    28   ar
    35    25    20    1
    36    11     3   ar
    37    19    13   ar
    38    10     5   ar
    39     1     2    1
@<TRIPOS>MOLECULE
*****
 35 39 0 0 0
SMALL
GASTEIGER

@<TRIPOS>ATOM
      1 N         139.0954  139.4210  165.4815 N.pl3   1  UNL1       -0.3058
      2 H         138.1315  139.2392  165.3971 H       1  UNL1        0.1495
      3 C         139.6361  140.0309  166.7407 C.ar    1  UNL1        0.1981
      4 N         139.2101  139.6914  168.1383 N.ar    1  UNL1       -0.2138
      5 C         140.0084  140.5381  169.0849 C.ar    1  UNL1        0.0999
      6 C         140.0169  140.6349  170.5817 C.ar    1  UNL1        0.0207
      7 C         140.9448  141.5945  171.2659 C.ar    1  UNL1        0.0016
      8 C         141.8642  142.4573  170.4532 C.ar    1  UNL1        0.0016
      9 C         141.8557  142.3605  168.9564 C.ar    1  UNL1        0.0188
     10 C         140.9278  141.4009  168.2722 C.ar    1  UNL1        0.0801
     11 N         140.6976  141.0874  166.8235 N.ar    1  UNL1       -0.2956
     12 C         141.4049  141.7196  165.6615 C.3     1  UNL1        0.1354
     13 C         140.7032  142.7487  164.8260 C.ar    1  UNL1        0.0006
     14 C         140.9454  142.8061  163.3467 C.ar    1  UNL1       -0.0001
     15 C         140.2436  143.8352  162.5111 C.ar    1  UNL1        0.0294
     16 C         139.2996  144.8071  163.1547 C.ar    1  UNL1        0.1401
     17 F         138.5978  145.8363  162.3191 F       1  UNL1       -0.2042
     18 C         139.0573  144.7498  164.6339 C.ar    1  UNL1        0.0294
     19 C         139.7591  143.7206  165.4695 C.ar    1  UNL1       -0.0001
     20 N         141.8790  138.4225  162.0897 N.3     1  UNL1       -0.2723
     21 C         142.2031  137.9721  163.4832 C.3     1  UNL1        0.0738
     22 C         141.2752  138.3049  164.6139 C.3     1  UNL1        0.0369
     23 C         140.0232  139.0882  164.3509 C.3     1  UNL1        0.0745
     24 C         139.6992  139.5387  162.9573 C.3     1  UNL1        0.0369
     25 C         140.6271  139.2058  161.8267 C.3     1  UNL1        0.0738
     26 C         142.8069  138.0897  160.9590 C.3     1  UNL1        0.0768
     27 C         144.0789  138.8642  160.7799 C.3     1  UNL1        0.0437
     28 C         144.2846  143.1770  162.0477 C.ar    1  UNL1        0.1387
     29 C         144.8139  142.1034  162.9518 C.ar    1  UNL1        0.0366
     30 C         144.7453  140.6659  162.5292 C.ar    1  UNL1       -0.0011
     31 C         144.1474  140.3018  161.2025 C.ar    1  UNL1       -0.0206
     32 C         143.6181  141.3754  160.2984 C.ar    1  UNL1       -0.0011
     33 C         143.6867  142.8130  160.7211 C.ar    1  UNL1        0.0366
     34 C         143.7208  145.0483  163.7596 C.3     1  UNL1        0.2525
     35 O         144.3532  144.6146  162.4703 O.3     1  UNL1       -0.4714
@<TRIPOS>BOND
     1    34    35    1
     2    35    28    1
     3    28    29   ar
     4    29    30   ar
     5    30    31   ar
     6    31    27    1
     7    27    26    1
     8    26    20    1
     9    20    21    1
    10    21    22    1
    11    22    23    1
    12    23     1    1
    13     1     3    1
    14     3     4   ar
    15     4     5   ar
    16     5     6   ar
    17     6     7   ar
    18     7     8   ar
    19     8     9   ar
    20     9    10   ar
    21    10    11   ar
    22    11    12    1
    23    12    13    1
    24    13    14   ar
    25    14    15   ar
    26    15    16   ar
    27    16    17    1
    28    16    18   ar
    29    18    19   ar
    30    23    24    1
    31    24    25    1
    32    31    32   ar
    33    32    33   ar
    34    33    28   ar
    35    25    20    1
    36    11     3   ar
    37    19    13   ar
    38    10     5   ar
    39     1     2    1
@<TRIPOS>MOLECULE
*****
 35 39 0 0 0
SMALL
GASTEIGER

@<TRIPOS>ATOM
      1 N         139.5268  138.8818  165.7282 N.pl3   1  UNL1       -0.3058
      2 H         138.6690  138.4013  165.6774 H       1  UNL1        0.1495
      3 C         139.7786  139.8511  166.8449 C.ar    1  UNL1        0.1981
      4 N         140.0012  139.4979  168.2856 N.ar    1  UNL1       -0.2138
      5 C         140.2121  140.7723  169.0481 C.ar    1  UNL1        0.0999
      6 C         140.4763  141.0412  170.4999 C.ar    1  UNL1        0.0207
      7 C         140.6482  142.4511  170.9823 C.ar    1  UNL1        0.0016
      8 C         140.5560  143.5920  170.0128 C.ar    1  UNL1        0.0016
      9 C         140.2919  143.3230  168.5610 C.ar    1  UNL1        0.0188
     10 C         140.1199  141.9132  168.0786 C.ar    1  UNL1        0.0801
     11 N         139.8520  141.3438  166.7170 N.ar    1  UNL1       -0.2956
     12 C         139.6865  142.1294  165.4499 C.3     1  UNL1        0.1354
     13 C         140.7990  143.0093  164.9622 C.ar    1  UNL1        0.0006
     14 C         142.2264  142.5920  165.1586 C.ar    1  UNL1       -0.0001
     15 C         143.3390  143.4719  164.6709 C.ar    1  UNL1        0.0294
     16 C         143.0242  144.7692  163.9867 C.ar    1  UNL1        0.1401
     17 F         144.1368  145.6491  163.4990 F       1  UNL1       -0.2042
     18 C         141.5969  145.1865  163.7903 C.ar    1  UNL1        0.0294
     19 C         140.4843  144.3065  164.2780 C.ar    1  UNL1       -0.0001
     20 N         142.6923  138.1701  162.6100 N.3     1  UNL1       -0.2723
     21 C         141.2577  137.8522  162.3085 C.3     1  UNL1        0.0738
     22 C         140.2025  138.0895  163.3479 C.3     1  UNL1        0.0369
     23 C         140.5819  138.6446  164.6888 C.3     1  UNL1        0.0745
     24 C         142.0166  138.9624  164.9902 C.3     1  UNL1        0.0369
     25 C         143.0717  138.7252  163.9508 C.3     1  UNL1        0.0738
     26 C         143.7475  137.9329  161.5705 C.3     1  UNL1        0.0768
     27 C         143.7557  138.7469  160.3108 C.3     1  UNL1        0.0437
     28 C         142.7273  143.1255  160.4547 C.ar    1  UNL1        0.1387
     29 C         143.9482  142.6181  161.1632 C.ar    1  UNL1        0.0366
     30 C         144.2910  141.1587  161.1153 C.ar    1  UNL1       -0.0011
     31 C         143.4129  140.2064  160.3587 C.ar    1  UNL1       -0.0206
     32 C         142.1920  140.7138  159.6502 C.ar    1  UNL1       -0.0011
     33 C         141.8492  142.1733  159.6982 C.ar    1  UNL1        0.0366
     34 C         141.0441  145.0568  160.0220 C.3     1  UNL1        0.2525
     35 O         142.3845  144.5850  160.5026 O.3     1  UNL1       -0.4714
@<TRIPOS>BOND
     1    34    35    1
     2    35    28    1
     3    28    29   ar
     4    29    30   ar
     5    30    31   ar
     6    31    27    1
     7    27    26    1
     8    26    20    1
     9    20    21    1
    10    21    22    1
    11    22    23    1
    12    23     1    1
    13     1     3    1
    14     3     4   ar
    15     4     5   ar
    16     5     6   ar
    17     6     7   ar
    18     7     8   ar
    19     8     9   ar
    20     9    10   ar
    21    10    11   ar
    22    11    12    1
    23    12    13    1
    24    13    14   ar
    25    14    15   ar
    26    15    16   ar
    27    16    17    1
    28    16    18   ar
    29    18    19   ar
    30    23    24    1
    31    24    25    1
    32    31    32   ar
    33    32    33   ar
    34    33    28   ar
    35    25    20    1
    36    11     3   ar
    37    19    13   ar
    38    10     5   ar
    39     1     2    1
@<TRIPOS>MOLECULE
*****
 35 39 0 0 0
SMALL
GASTEIGER

@<TRIPOS>ATOM
      1 N         144.0599  138.8453  165.3278 N.pl3   1  UNL1       -0.3058
      2 H         144.5706  138.0058  165.3880 H       1  UNL1        0.1495
      3 C         143.1051  139.2225  166.4214 C.ar    1  UNL1        0.1981
      4 N         143.2249  138.8405  167.8670 N.ar    1  UNL1       -0.2138
      5 C         142.0567  139.4298  168.6006 C.ar    1  UNL1        0.0999
      6 C         141.6508  139.3833  170.0438 C.ar    1  UNL1        0.0207
      7 C         140.4031  140.0831  170.4948 C.ar    1  UNL1        0.0016
      8 C         139.5613  140.8293  169.5026 C.ar    1  UNL1        0.0016
      9 C         139.9672  140.8758  168.0594 C.ar    1  UNL1        0.0188
     10 C         141.2149  140.1760  167.6084 C.ar    1  UNL1        0.0801
     11 N         141.8629  140.0479  166.2616 N.ar    1  UNL1       -0.2956
     12 C         141.3573  140.6411  164.9800 C.3     1  UNL1        0.1354
     13 C         140.3414  139.9018  164.1607 C.ar    1  UNL1        0.0006
     14 C         139.2149  140.6489  163.5103 C.ar    1  UNL1       -0.0001
     15 C         138.1989  139.9096  162.6910 C.ar    1  UNL1        0.0294
     16 C         138.3093  138.4232  162.5221 C.ar    1  UNL1        0.1401
     17 F         137.2933  137.6840  161.7029 F       1  UNL1       -0.2042
     18 C         139.4358  137.6762  163.1725 C.ar    1  UNL1        0.0294
     19 C         140.4518  138.4154  163.9918 C.ar    1  UNL1       -0.0001
     20 N         144.5898  141.5509  161.7713 N.3     1  UNL1       -0.2723
     21 C         145.0058  142.0153  163.1355 C.3     1  UNL1        0.0738
     22 C         144.8292  141.1135  164.3211 C.3     1  UNL1        0.0369
     23 C         144.2365  139.7472  164.1423 C.3     1  UNL1        0.0745
     24 C         143.8205  139.2827  162.7780 C.3     1  UNL1        0.0369
     25 C         143.9971  140.1846  161.5925 C.3     1  UNL1        0.0738
     26 C         144.7664  142.4528  160.5857 C.3     1  UNL1        0.0768
     27 C         143.5652  142.9701  159.8513 C.3     1  UNL1        0.0437
     28 C         139.9911  144.4543  162.1475 C.ar    1  UNL1        0.1387
     29 C         139.8044  143.5075  160.9992 C.ar    1  UNL1        0.0366
     30 C         140.9958  143.0127  160.2338 C.ar    1  UNL1       -0.0011
     31 C         142.3738  143.4648  160.6167 C.ar    1  UNL1       -0.0206
     32 C         142.5605  144.4117  161.7650 C.ar    1  UNL1       -0.0011
     33 C         141.3691  144.9065  162.5304 C.ar    1  UNL1        0.0366
     34 C         137.6636  144.0178  163.2164 C.3     1  UNL1        0.2525
     35 O         138.7997  144.9491  162.9129 O.3     1  UNL1       -0.4714
@<TRIPOS>BOND
     1    34    35    1
     2    35    28    1
     3    28    29   ar
     4    29    30   ar
     5    30    31   ar
     6    31    27    1
     7    27    26    1
     8    26    20    1
     9    20    21    1
    10    21    22    1
    11    22    23    1
    12    23     1    1
    13     1     3    1
    14     3     4   ar
    15     4     5   ar
    16     5     6   ar
    17     6     7   ar
    18     7     8   ar
    19     8     9   ar
    20     9    10   ar
    21    10    11   ar
    22    11    12    1
    23    12    13    1
    24    13    14   ar
    25    14    15   ar
    26    15    16   ar
    27    16    17    1
    28    16    18   ar
    29    18    19   ar
    30    23    24    1
    31    24    25    1
    32    31    32   ar
    33    32    33   ar
    34    33    28   ar
    35    25    20    1
    36    11     3   ar
    37    19    13   ar
    38    10     5   ar
    39     1     2    1
@<TRIPOS>MOLECULE
*****
 35 39 0 0 0
SMALL
GASTEIGER

@<TRIPOS>ATOM
      1 N         142.0562  138.4993  165.8001 N.pl3   1  UNL1       -0.3058
      2 H         141.8475  137.5734  166.0614 H       1  UNL1        0.1495
      3 C         142.0064  139.5963  166.8219 C.ar    1  UNL1        0.1981
      4 N         143.1654  140.1044  167.6273 N.ar    1  UNL1       -0.2138
      5 C         142.6642  141.1999  168.5209 C.ar    1  UNL1        0.0999
      6 C         143.3555  142.0654  169.5323 C.ar    1  UNL1        0.0207
      7 C         142.5779  143.1000  170.2907 C.ar    1  UNL1        0.0016
      8 C         141.1091  143.2690  170.0376 C.ar    1  UNL1        0.0016
      9 C         140.4179  142.4036  169.0261 C.ar    1  UNL1        0.0188
     10 C         141.1954  141.3690  168.2678 C.ar    1  UNL1        0.0801
     11 N         140.7889  140.3779  167.2178 N.ar    1  UNL1       -0.2956
     12 C         139.4074  140.1998  166.6613 C.3     1  UNL1        0.1354
     13 C         138.9769  140.9836  165.4572 C.ar    1  UNL1        0.0006
     14 C         138.0386  140.3714  164.4597 C.ar    1  UNL1       -0.0001
     15 C         137.6081  141.1552  163.2555 C.ar    1  UNL1        0.0294
     16 C         138.1159  142.5515  163.0487 C.ar    1  UNL1        0.1401
     17 F         137.6854  143.3353  161.8444 F       1  UNL1       -0.2042
     18 C         139.0542  143.1637  164.0460 C.ar    1  UNL1        0.0294
     19 C         139.4847  142.3798  165.2502 C.ar    1  UNL1       -0.0001
     20 N         143.1598  139.4406  161.5403 N.3     1  UNL1       -0.2723
     21 C         141.7284  139.1780  161.9037 C.3     1  UNL1        0.0738
     22 C         141.3605  138.8642  163.3237 C.3     1  UNL1        0.0369
     23 C         142.4241  138.8131  164.3802 C.3     1  UNL1        0.0745
     24 C         143.8555  139.0757  164.0167 C.3     1  UNL1        0.0369
     25 C         144.2233  139.3895  162.5968 C.3     1  UNL1        0.0738
     26 C         143.5277  139.7544  160.1203 C.3     1  UNL1        0.0768
     27 C         143.7901  141.1729  159.7095 C.3     1  UNL1        0.0437
     28 C         141.6279  144.5455  161.7589 C.ar    1  UNL1        0.1387
     29 C         140.9692  143.8078  160.6311 C.ar    1  UNL1        0.0366
     30 C         141.6899  142.6836  159.9480 C.ar    1  UNL1       -0.0011
     31 C         143.0694  142.2971  160.3926 C.ar    1  UNL1       -0.0206
     32 C         143.7281  143.0348  161.5204 C.ar    1  UNL1       -0.0011
     33 C         143.0073  144.1591  162.2035 C.ar    1  UNL1        0.0366
     34 C         139.6662  146.2476  161.8287 C.3     1  UNL1        0.2525
     35 O         140.9072  145.6697  162.4420 O.3     1  UNL1       -0.4714
@<TRIPOS>BOND
     1    34    35    1
     2    35    28    1
     3    28    29   ar
     4    29    30   ar
     5    30    31   ar
     6    31    27    1
     7    27    26    1
     8    26    20    1
     9    20    21    1
    10    21    22    1
    11    22    23    1
    12    23     1    1
    13     1     3    1
    14     3     4   ar
    15     4     5   ar
    16     5     6   ar
    17     6     7   ar
    18     7     8   ar
    19     8     9   ar
    20     9    10   ar
    21    10    11   ar
    22    11    12    1
    23    12    13    1
    24    13    14   ar
    25    14    15   ar
    26    15    16   ar
    27    16    17    1
    28    16    18   ar
    29    18    19   ar
    30    23    24    1
    31    24    25    1
    32    31    32   ar
    33    32    33   ar
    34    33    28   ar
    35    25    20    1
    36    11     3   ar
    37    19    13   ar
    38    10     5   ar
    39     1     2    1
@<TRIPOS>MOLECULE
*****
 35 39 0 0 0
SMALL
GASTEIGER

@<TRIPOS>ATOM
      1 N         143.1334  138.2152  165.6923 N.pl3   1  UNL1       -0.3058
      2 H         143.9309  137.6379  165.6817 H       1  UNL1        0.1495
      3 C         142.8971  139.1466  166.8441 C.ar    1  UNL1        0.1981
      4 N         142.9746  138.7877  168.2985 N.ar    1  UNL1       -0.2138
      5 C         142.6672  140.0197  169.0970 C.ar    1  UNL1        0.0999
      6 C         142.5963  140.2661  170.5749 C.ar    1  UNL1        0.0207
      7 C         142.2578  141.6329  171.0919 C.ar    1  UNL1        0.0016
      8 C         141.9903  142.7533  170.1311 C.ar    1  UNL1        0.0016
      9 C         142.0612  142.5068  168.6532 C.ar    1  UNL1        0.0188
     10 C         142.3996  141.1401  168.1362 C.ar    1  UNL1        0.0801
     11 N         142.5417  140.6004  166.7438 N.ar    1  UNL1       -0.2956
     12 C         142.3603  141.3781  165.4741 C.3     1  UNL1        0.1354
     13 C         141.0852  142.1293  165.2303 C.ar    1  UNL1        0.0006
     14 C         141.1265  143.5962  164.9194 C.ar    1  UNL1       -0.0001
     15 C         139.8513  144.3475  164.6756 C.ar    1  UNL1        0.0294
     16 C         138.5347  143.6318  164.7427 C.ar    1  UNL1        0.1401
     17 F         137.2595  144.3830  164.4989 F       1  UNL1       -0.2042
     18 C         138.4933  142.1650  165.0536 C.ar    1  UNL1        0.0294
     19 C         139.7685  141.4137  165.2974 C.ar    1  UNL1       -0.0001
     20 N         140.1974  138.0593  162.2857 N.3     1  UNL1       -0.2723
     21 C         141.6294  138.4222  162.0256 C.3     1  UNL1        0.0738
     22 C         142.6081  138.4742  163.1612 C.3     1  UNL1        0.0369
     23 C         142.1548  138.1632  164.5568 C.3     1  UNL1        0.0745
     24 C         140.7227  137.8003  164.8168 C.3     1  UNL1        0.0369
     25 C         139.7441  137.7484  163.6813 C.3     1  UNL1        0.0738
     26 C         139.2187  138.0074  161.1501 C.3     1  UNL1        0.0768
     27 C         138.2355  139.1234  160.9557 C.3     1  UNL1        0.0437
     28 C         139.7016  143.3380  160.3748 C.ar    1  UNL1        0.1387
     29 C         140.3255  142.2137  159.6023 C.ar    1  UNL1        0.0366
     30 C         139.8368  140.8088  159.7959 C.ar    1  UNL1       -0.0011
     31 C         138.7242  140.5282  160.7621 C.ar    1  UNL1       -0.0206
     32 C         138.1003  141.6525  161.5346 C.ar    1  UNL1       -0.0011
     33 C         138.5891  143.0574  161.3410 C.ar    1  UNL1        0.0366
     34 C         139.9750  145.7667  161.2561 C.3     1  UNL1        0.2525
     35 O         140.1903  144.7428  160.1812 O.3     1  UNL1       -0.4714
@<TRIPOS>BOND
     1    34    35    1
     2    35    28    1
     3    28    29   ar
     4    29    30   ar
     5    30    31   ar
     6    31    27    1
     7    27    26    1
     8    26    20    1
     9    20    21    1
    10    21    22    1
    11    22    23    1
    12    23     1    1
    13     1     3    1
    14     3     4   ar
    15     4     5   ar
    16     5     6   ar
    17     6     7   ar
    18     7     8   ar
    19     8     9   ar
    20     9    10   ar
    21    10    11   ar
    22    11    12    1
    23    12    13    1
    24    13    14   ar
    25    14    15   ar
    26    15    16   ar
    27    16    17    1
    28    16    18   ar
    29    18    19   ar
    30    23    24    1
    31    24    25    1
    32    31    32   ar
    33    32    33   ar
    34    33    28   ar
    35    25    20    1
    36    11     3   ar
    37    19    13   ar
    38    10     5   ar
    39     1     2    1
@<TRIPOS>MOLECULE
*****
 35 39 0 0 0
SMALL
GASTEIGER

@<TRIPOS>ATOM
      1 N         139.5234  144.5952  163.0171 N.pl3   1  UNL1       -0.3058
      2 H         139.4276  145.4115  163.5591 H       1  UNL1        0.1495
      3 C         140.0476  144.6835  161.6144 C.ar    1  UNL1        0.1981
      4 N         139.5702  145.6293  160.5526 N.ar    1  UNL1       -0.2138
      5 C         140.3689  145.3718  159.3093 C.ar    1  UNL1        0.0999
      6 C         140.3373  146.0007  157.9479 C.ar    1  UNL1        0.0207
      7 C         141.2768  145.5246  156.8799 C.ar    1  UNL1        0.0016
      8 C         142.2478  144.4196  157.1733 C.ar    1  UNL1        0.0016
      9 C         142.2794  143.7907  158.5347 C.ar    1  UNL1        0.0188
     10 C         141.3399  144.2668  159.6027 C.ar    1  UNL1        0.0801
     11 N         141.1413  143.8414  161.0273 N.ar    1  UNL1       -0.2956
     12 C         141.9029  142.7632  161.7398 C.3     1  UNL1        0.1354
     13 C         142.7844  143.1106  162.9024 C.ar    1  UNL1        0.0006
     14 C         143.3018  142.0271  163.8016 C.ar    1  UNL1       -0.0001
     15 C         144.1834  142.3745  164.9644 C.ar    1  UNL1        0.0294
     16 C         144.5477  143.8055  165.2280 C.ar    1  UNL1        0.1401
     17 F         145.4294  144.1529  166.3908 F       1  UNL1       -0.2042
     18 C         144.0305  144.8890  164.3289 C.ar    1  UNL1        0.0294
     19 C         143.1488  144.5416  163.1662 C.ar    1  UNL1       -0.0001
     20 N         138.3885  140.5994  164.7477 N.3     1  UNL1       -0.2723
     21 C         139.2731  141.5290  165.5242 C.3     1  UNL1        0.0738
     22 C         139.6515  142.8610  164.9474 C.3     1  UNL1        0.0369
     23 C         139.1451  143.2633  163.5939 C.3     1  UNL1        0.0745
     24 C         138.2604  142.3336  162.8174 C.3     1  UNL1        0.0369
     25 C         137.8821  141.0017  163.3942 C.3     1  UNL1        0.0738
     26 C         138.0101  139.2674  165.3245 C.3     1  UNL1        0.0768
     27 C         139.0509  138.2007  165.4944 C.3     1  UNL1        0.0437
     28 C         142.7212  138.2035  162.8908 C.ar    1  UNL1        0.1387
     29 C         141.3817  137.8802  162.2984 C.ar    1  UNL1        0.0366
     30 C         140.1582  137.8792  163.1662 C.ar    1  UNL1       -0.0011
     31 C         140.2743  138.2016  164.6266 C.ar    1  UNL1       -0.0206
     32 C         141.6139  138.5250  165.2191 C.ar    1  UNL1       -0.0011
     33 C         142.8374  138.5259  164.3511 C.ar    1  UNL1        0.0366
     34 C         143.8817  138.7781  160.6384 C.3     1  UNL1        0.2525
     35 O         143.9447  138.2045  162.0230 O.3     1  UNL1       -0.4714
@<TRIPOS>BOND
     1    34    35    1
     2    35    28    1
     3    28    29   ar
     4    29    30   ar
     5    30    31   ar
     6    31    27    1
     7    27    26    1
     8    26    20    1
     9    20    21    1
    10    21    22    1
    11    22    23    1
    12    23     1    1
    13     1     3    1
    14     3     4   ar
    15     4     5   ar
    16     5     6   ar
    17     6     7   ar
    18     7     8   ar
    19     8     9   ar
    20     9    10   ar
    21    10    11   ar
    22    11    12    1
    23    12    13    1
    24    13    14   ar
    25    14    15   ar
    26    15    16   ar
    27    16    17    1
    28    16    18   ar
    29    18    19   ar
    30    23    24    1
    31    24    25    1
    32    31    32   ar
    33    32    33   ar
    34    33    28   ar
    35    25    20    1
    36    11     3   ar
    37    19    13   ar
    38    10     5   ar
    39     1     2    1
@<TRIPOS>MOLECULE
*****
 35 39 0 0 0
SMALL
GASTEIGER

@<TRIPOS>ATOM
      1 N         145.0983  140.3356  163.1176 N.pl3   1  UNL1       -0.3058
      2 H         146.0767  140.4144  163.1936 H       1  UNL1        0.1495
      3 C         144.4540  140.2695  161.7647 C.ar    1  UNL1        0.1981
      4 N         144.1652  139.0205  160.9858 N.ar    1  UNL1       -0.2138
      5 C         143.5181  139.4198  159.6927 C.ar    1  UNL1        0.0999
      6 C         143.0157  138.6147  158.5312 C.ar    1  UNL1        0.0207
      7 C         142.4022  139.3052  157.3494 C.ar    1  UNL1        0.0016
      8 C         142.2911  140.8010  157.3292 C.ar    1  UNL1        0.0016
      9 C         142.7935  141.6061  158.4907 C.ar    1  UNL1        0.0188
     10 C         143.4070  140.9156  159.6725 C.ar    1  UNL1        0.0801
     11 N         143.9854  141.4406  160.9530 N.ar    1  UNL1       -0.2956
     12 C         144.0788  142.8836  161.3519 C.3     1  UNL1        0.1354
     13 C         142.9842  143.5097  162.1640 C.ar    1  UNL1        0.0006
     14 C         141.5945  142.9475  162.1096 C.ar    1  UNL1       -0.0001
     15 C         140.4998  143.5735  162.9218 C.ar    1  UNL1        0.0294
     16 C         140.7947  144.7619  163.7883 C.ar    1  UNL1        0.1401
     17 F         139.7000  145.3879  164.6005 F       1  UNL1       -0.2042
     18 C         142.1842  145.3241  163.8427 C.ar    1  UNL1        0.0294
     19 C         143.2790  144.6980  163.0306 C.ar    1  UNL1       -0.0001
     20 N         142.5590  140.1739  166.8293 N.3     1  UNL1       -0.2723
     21 C         142.9579  141.4990  166.2506 C.3     1  UNL1        0.0738
     22 C         143.8044  141.5530  165.0134 C.3     1  UNL1        0.0369
     23 C         144.2519  140.2817  164.3548 C.3     1  UNL1        0.0745
     24 C         143.8529  138.9565  164.9335 C.3     1  UNL1        0.0369
     25 C         143.0065  138.9027  166.1707 C.3     1  UNL1        0.0738
     26 C         141.7126  140.1200  168.0665 C.3     1  UNL1        0.0768
     27 C         140.2170  140.1155  167.9524 C.3     1  UNL1        0.0437
     28 C         138.2702  139.8890  163.9016 C.ar    1  UNL1        0.1387
     29 C         138.5774  141.2241  164.5125 C.ar    1  UNL1        0.0366
     30 C         139.2263  141.2996  165.8627 C.ar    1  UNL1       -0.0011
     31 C         139.5681  140.0400  166.6022 C.ar    1  UNL1       -0.0206
     32 C         139.2609  138.7049  165.9913 C.ar    1  UNL1       -0.0011
     33 C         138.6119  138.6295  164.6410 C.ar    1  UNL1        0.0366
     34 C         137.8091  138.5956  161.6961 C.3     1  UNL1        0.2525
     35 O         137.6213  139.8135  162.5514 O.3     1  UNL1       -0.4714
@<TRIPOS>BOND
     1    34    35    1
     2    35    28    1
     3    28    29   ar
     4    29    30   ar
     5    30    31   ar
     6    31    27    1
     7    27    26    1
     8    26    20    1
     9    20    21    1
    10    21    22    1
    11    22    23    1
    12    23     1    1
    13     1     3    1
    14     3     4   ar
    15     4     5   ar
    16     5     6   ar
    17     6     7   ar
    18     7     8   ar
    19     8     9   ar
    20     9    10   ar
    21    10    11   ar
    22    11    12    1
    23    12    13    1
    24    13    14   ar
    25    14    15   ar
    26    15    16   ar
    27    16    17    1
    28    16    18   ar
    29    18    19   ar
    30    23    24    1
    31    24    25    1
    32    31    32   ar
    33    32    33   ar
    34    33    28   ar
    35    25    20    1
    36    11     3   ar
    37    19    13   ar
    38    10     5   ar
    39     1     2    1
@<TRIPOS>MOLECULE
*****
 35 39 0 0 0
SMALL
GASTEIGER

@<TRIPOS>ATOM
      1 N         138.7253  139.0300  167.2868 N.pl3   1  UNL1       -0.3058
      2 H         138.1544  138.4325  167.8219 H       1  UNL1        0.1495
      3 C         139.7419  139.9007  167.9639 C.ar    1  UNL1        0.1981
      4 N         139.4741  140.8603  169.0853 N.ar    1  UNL1       -0.2138
      5 C         140.7715  141.5173  169.4530 C.ar    1  UNL1        0.0999
      6 C         141.1170  142.5481  170.4865 C.ar    1  UNL1        0.0207
      7 C         142.5322  143.0254  170.6257 C.ar    1  UNL1        0.0016
      8 C         143.6018  142.4719  169.7316 C.ar    1  UNL1        0.0016
      9 C         143.2563  141.4411  168.6981 C.ar    1  UNL1        0.0188
     10 C         141.8411  140.9638  168.5588 C.ar    1  UNL1        0.0801
     11 N         141.2048  139.9647  167.6386 N.ar    1  UNL1       -0.2956
     12 C         141.9079  139.1693  166.5789 C.3     1  UNL1        0.1354
     13 C         142.9619  139.8167  165.7305 C.ar    1  UNL1        0.0006
     14 C         142.8858  141.2844  165.4300 C.ar    1  UNL1       -0.0001
     15 C         143.9397  141.9320  164.5816 C.ar    1  UNL1        0.0294
     16 C         145.0699  141.1118  164.0337 C.ar    1  UNL1        0.1401
     17 F         146.1238  141.7594  163.1852 F       1  UNL1       -0.2042
     18 C         145.1460  139.6442  164.3341 C.ar    1  UNL1        0.0294
     19 C         144.0920  138.9967  165.1825 C.ar    1  UNL1       -0.0001
     20 N         138.2853  139.1489  162.8100 N.3     1  UNL1       -0.2723
     21 C         137.9548  140.3616  163.6285 C.3     1  UNL1        0.0738
     22 C         138.1015  140.3220  165.1209 C.3     1  UNL1        0.0369
     23 C         138.5786  139.0697  165.7946 C.3     1  UNL1        0.0745
     24 C         138.9091  137.8569  164.9760 C.3     1  UNL1        0.0369
     25 C         138.7624  137.8965  163.4837 C.3     1  UNL1        0.0738
     26 C         138.1386  139.1885  161.3177 C.3     1  UNL1        0.0768
     27 C         139.1649  139.8940  160.4816 C.3     1  UNL1        0.0437
     28 C         140.8583  143.8330  161.8478 C.ar    1  UNL1        0.1387
     29 C         139.5394  143.7906  161.1347 C.ar    1  UNL1        0.0366
     30 C         138.9749  142.4776  160.6793 C.ar    1  UNL1       -0.0011
     31 C         139.7294  141.2070  160.9370 C.ar    1  UNL1       -0.0206
     32 C         141.0483  141.2494  161.6502 C.ar    1  UNL1       -0.0011
     33 C         141.6128  142.5625  162.1056 C.ar    1  UNL1        0.0366
     34 C         142.1614  145.2335  163.6059 C.3     1  UNL1        0.2525
     35 O         141.4228  145.1460  162.3032 O.3     1  UNL1       -0.4714
@<TRIPOS>BOND
     1    34    35    1
     2    35    28    1
     3    28    29   ar
     4    29    30   ar
     5    30    31   ar
     6    31    27    1
     7    27    26    1
     8    26    20    1
     9    20    21    1
    10    21    22    1
    11    22    23    1
    12    23     1    1
    13     1     3    1
    14     3     4   ar
    15     4     5   ar
    16     5     6   ar
    17     6     7   ar
    18     7     8   ar
    19     8     9   ar
    20     9    10   ar
    21    10    11   ar
    22    11    12    1
    23    12    13    1
    24    13    14   ar
    25    14    15   ar
    26    15    16   ar
    27    16    17    1
    28    16    18   ar
    29    18    19   ar
    30    23    24    1
    31    24    25    1
    32    31    32   ar
    33    32    33   ar
    34    33    28   ar
    35    25    20    1
    36    11     3   ar
    37    19    13   ar
    38    10     5   ar
    39     1     2    1
