@<TRIPOS>MOLECULE
*****
 30 33 0 0 0
SMALL
GASTEIGER

@<TRIPOS>ATOM
      1 N         140.4451  144.7280  161.6808 N.am    1  UNL1       -0.2744
      2 C         139.9336  146.1226  161.4719 C.3     1  UNL1        0.1152
      3 C         140.9619  143.9363  160.5163 C.2     1  UNL1        0.2668
      4 O         141.4733  142.5418  160.7253 O.2     1  UNL1       -0.2683
      5 C         141.7179  141.9463  167.8365 C.ar    1  UNL1       -0.0065
      6 C         143.0175  142.1788  167.1245 C.ar    1  UNL1       -0.0033
      7 C         143.0229  142.7816  165.7510 C.ar    1  UNL1       -0.0048
      8 C         141.7286  143.1519  165.0894 C.ar    1  UNL1       -0.0245
      9 C         140.4290  142.9194  165.8014 C.ar    1  UNL1       -0.0263
     10 C         140.4237  142.3166  167.1749 C.ar    1  UNL1       -0.0075
     11 C         139.1347  143.2898  165.1398 C.3     1  UNL1        0.0277
     12 C         139.1400  143.8926  163.7663 C.3     1  UNL1        0.0248
     13 C         140.4397  144.1251  163.0544 C.3     1  UNL1        0.0804
     14 C         141.7340  143.7548  163.7159 C.3     1  UNL1        0.0458
     15 C         141.7126  141.3434  169.2100 C.3     1  UNL1        0.0992
     16 C         139.6145  140.1802  170.2075 C.3     1  UNL1        0.0899
     17 N         140.4710  141.4015  170.0497 N.3     1  UNL1       -0.2665
     18 C         140.0859  142.6809  170.7317 C.3     1  UNL1        0.0899
     19 C         140.9672  144.5391  159.1428 C.ar    1  UNL1        0.1347
     20 C         139.8238  144.2824  158.2066 C.ar    1  UNL1        0.0238
     21 C         139.8291  144.8853  156.8331 C.ar    1  UNL1        0.0032
     22 C         140.9779  145.7448  156.3958 C.ar    1  UNL1        0.0192
     23 C         142.1214  146.0015  157.3320 C.ar    1  UNL1        0.0989
     24 N         142.1161  145.3987  158.7055 N.ar    1  UNL1       -0.2393
     25 C         140.9833  146.3476  155.0222 C.ar    1  UNL1        0.0015
     26 C         141.7642  145.6956  153.9200 C.ar    1  UNL1        0.0000
     27 C         141.7696  146.2984  152.5465 C.ar    1  UNL1        0.0000
     28 C         140.9940  147.5533  152.2752 C.ar    1  UNL1        0.0000
     29 C         140.2131  148.2054  153.3774 C.ar    1  UNL1        0.0000
     30 C         140.2077  147.6025  154.7509 C.ar    1  UNL1        0.0000
@<TRIPOS>BOND
     1    16    17    1
     2    17    18    1
     3    17    15    1
     4    15     5    1
     5     5     6   ar
     6     6     7   ar
     7     7     8   ar
     8     8     9   ar
     9     9    10   ar
    10     9    11    1
    11    11    12    1
    12    12    13    1
    13    13     1    1
    14     1     2    1
    15     1     3   am
    16     3     4    2
    17     3    19    1
    18    19    20   ar
    19    20    21   ar
    20    21    22   ar
    21    22    25    1
    22    25    26   ar
    23    26    27   ar
    24    27    28   ar
    25    28    29   ar
    26    29    30   ar
    27    22    23   ar
    28    23    24   ar
    29    13    14    1
    30    10     5   ar
    31    24    19   ar
    32    14     8    1
    33    30    25   ar
@<TRIPOS>MOLECULE
*****
 30 33 0 0 0
SMALL
GASTEIGER

@<TRIPOS>ATOM
      1 N         140.9020  142.9030  161.1468 N.am    1  UNL1       -0.2744
      2 C         142.2895  143.1333  160.6254 C.3     1  UNL1        0.1152
      3 C         139.7171  143.3897  160.3664 C.2     1  UNL1        0.2668
      4 O         138.3297  143.1594  160.8879 O.2     1  UNL1       -0.2683
      5 C         140.1430  140.7961  167.6456 C.ar    1  UNL1       -0.0065
      6 C         140.3965  142.2744  167.6352 C.ar    1  UNL1       -0.0033
      7 C         140.5990  142.9915  166.3333 C.ar    1  UNL1       -0.0048
      8 C         140.5480  142.2302  165.0419 C.ar    1  UNL1       -0.0245
      9 C         140.2945  140.7518  165.0524 C.ar    1  UNL1       -0.0263
     10 C         140.0919  140.0348  166.3542 C.ar    1  UNL1       -0.0075
     11 C         140.2434  139.9905  163.7609 C.3     1  UNL1        0.0277
     12 C         140.4459  140.7075  162.4591 C.3     1  UNL1        0.0248
     13 C         140.6995  142.1859  162.4487 C.3     1  UNL1        0.0804
     14 C         140.7505  142.9472  163.7401 C.3     1  UNL1        0.0458
     15 C         139.9405  140.0790  168.9475 C.3     1  UNL1        0.0992
     16 C         142.2367  139.2092  169.7965 C.3     1  UNL1        0.0899
     17 N         141.0280  140.0784  169.9805 N.3     1  UNL1       -0.2665
     18 C         140.9070  140.9469  171.1975 C.3     1  UNL1        0.0899
     19 C         139.9196  144.1068  159.0646 C.ar    1  UNL1        0.1347
     20 C         140.0336  143.3267  157.7885 C.ar    1  UNL1        0.0238
     21 C         140.2362  144.0438  156.4866 C.ar    1  UNL1        0.0032
     22 C         140.3247  145.5409  156.4609 C.ar    1  UNL1        0.0192
     23 C         140.2107  146.3210  157.7369 C.ar    1  UNL1        0.0989
     24 N         140.0081  145.6039  159.0388 N.ar    1  UNL1       -0.2393
     25 C         140.5272  146.2579  155.1590 C.ar    1  UNL1        0.0015
     26 C         141.3126  145.6077  154.0589 C.ar    1  UNL1        0.0000
     27 C         141.5151  146.3248  152.7570 C.ar    1  UNL1        0.0000
     28 C         140.9322  147.6920  152.5553 C.ar    1  UNL1        0.0000
     29 C         140.1468  148.3423  153.6554 C.ar    1  UNL1        0.0000
     30 C         139.9443  147.6252  154.9573 C.ar    1  UNL1        0.0000
@<TRIPOS>BOND
     1    16    17    1
     2    17    18    1
     3    17    15    1
     4    15     5    1
     5     5     6   ar
     6     6     7   ar
     7     7     8   ar
     8     8     9   ar
     9     9    10   ar
    10     9    11    1
    11    11    12    1
    12    12    13    1
    13    13     1    1
    14     1     2    1
    15     1     3   am
    16     3     4    2
    17     3    19    1
    18    19    20   ar
    19    20    21   ar
    20    21    22   ar
    21    22    25    1
    22    25    26   ar
    23    26    27   ar
    24    27    28   ar
    25    28    29   ar
    26    29    30   ar
    27    22    23   ar
    28    23    24   ar
    29    13    14    1
    30    10     5   ar
    31    24    19   ar
    32    14     8    1
    33    30    25   ar
@<TRIPOS>MOLECULE
*****
 30 33 0 0 0
SMALL
GASTEIGER

@<TRIPOS>ATOM
      1 N         143.0192  141.7813  161.1430 N.am    1  UNL1       -0.2744
      2 C         142.0036  142.8666  161.3451 C.3     1  UNL1        0.1152
      3 C         143.3851  140.8753  162.2810 C.2     1  UNL1        0.2668
      4 O         144.4006  139.7900  162.0789 O.2     1  UNL1       -0.2683
      5 C         146.8460  141.8509  155.4334 C.ar    1  UNL1       -0.0065
      6 C         147.4251  142.8165  156.4244 C.ar    1  UNL1       -0.0033
      7 C         146.7756  142.9957  157.7645 C.ar    1  UNL1       -0.0048
      8 C         145.5469  142.2093  158.1136 C.ar    1  UNL1       -0.0245
      9 C         144.9678  141.2437  157.1226 C.ar    1  UNL1       -0.0263
     10 C         145.6173  141.0645  155.7825 C.ar    1  UNL1       -0.0075
     11 C         143.7391  140.4573  157.4717 C.3     1  UNL1        0.0277
     12 C         143.0895  140.6364  158.8118 C.3     1  UNL1        0.0248
     13 C         143.6687  141.6021  159.8029 C.3     1  UNL1        0.0804
     14 C         144.8974  142.3885  159.4538 C.3     1  UNL1        0.0458
     15 C         147.4955  141.6717  154.0932 C.3     1  UNL1        0.0992
     16 C         150.0778  141.5280  154.3406 C.3     1  UNL1        0.0899
     17 N         148.8587  142.2431  153.8381 N.3     1  UNL1       -0.2665
     18 C         149.0030  143.5297  153.0804 C.3     1  UNL1        0.0899
     19 C         142.7356  141.0544  163.6212 C.ar    1  UNL1        0.1347
     20 C         143.4114  141.8765  164.6783 C.ar    1  UNL1        0.0238
     21 C         142.7618  142.0557  166.0184 C.ar    1  UNL1        0.0032
     22 C         141.4365  141.4128  166.3015 C.ar    1  UNL1        0.0192
     23 C         140.7607  140.5908  165.2444 C.ar    1  UNL1        0.0989
     24 N         141.4102  140.4116  163.9042 N.ar    1  UNL1       -0.2393
     25 C         140.7870  141.5920  167.6416 C.ar    1  UNL1        0.0015
     26 C         140.9101  142.8997  168.3659 C.ar    1  UNL1        0.0000
     27 C         140.2606  143.0789  169.7060 C.ar    1  UNL1        0.0000
     28 C         139.4879  141.9504  170.3219 C.ar    1  UNL1        0.0000
     29 C         139.3647  140.6427  169.5976 C.ar    1  UNL1        0.0000
     30 C         140.0142  140.4635  168.2574 C.ar    1  UNL1        0.0000
@<TRIPOS>BOND
     1    16    17    1
     2    17    18    1
     3    17    15    1
     4    15     5    1
     5     5     6   ar
     6     6     7   ar
     7     7     8   ar
     8     8     9   ar
     9     9    10   ar
    10     9    11    1
    11    11    12    1
    12    12    13    1
    13    13     1    1
    14     1     2    1
    15     1     3   am
    16     3     4    2
    17     3    19    1
    18    19    20   ar
    19    20    21   ar
    20    21    22   ar
    21    22    25    1
    22    25    26   ar
    23    26    27   ar
    24    27    28   ar
    25    28    29   ar
    26    29    30   ar
    27    22    23   ar
    28    23    24   ar
    29    13    14    1
    30    10     5   ar
    31    24    19   ar
    32    14     8    1
    33    30    25   ar
@<TRIPOS>MOLECULE
*****
 30 33 0 0 0
SMALL
GASTEIGER

@<TRIPOS>ATOM
      1 N         141.2242  139.5004  160.7863 N.am    1  UNL1       -0.2744
      2 C         141.4178  140.9879  160.7829 C.3     1  UNL1        0.1152
      3 C         141.1505  138.7567  162.0868 C.2     1  UNL1        0.2668
      4 O         140.9569  137.2693  162.0902 O.2     1  UNL1       -0.2683
      5 C         141.9277  135.7873  155.0445 C.ar    1  UNL1       -0.0065
      6 C         143.2303  135.7928  155.7883 C.ar    1  UNL1       -0.0033
      7 C         143.3501  136.5366  157.0855 C.ar    1  UNL1       -0.0048
      8 C         142.1673  137.2748  157.6388 C.ar    1  UNL1       -0.0245
      9 C         140.8648  137.2693  156.8949 C.ar    1  UNL1       -0.0263
     10 C         140.7450  136.5256  155.5978 C.ar    1  UNL1       -0.0075
     11 C         139.6820  138.0075  157.4482 C.3     1  UNL1        0.0277
     12 C         139.8018  138.7512  158.7453 C.3     1  UNL1        0.0248
     13 C         141.1044  138.7567  159.4892 C.3     1  UNL1        0.0804
     14 C         142.2872  138.0185  158.9359 C.3     1  UNL1        0.0458
     15 C         141.8079  135.0436  153.7474 C.3     1  UNL1        0.0992
     16 C         141.4199  132.8055  155.0084 C.3     1  UNL1        0.0899
     17 N         141.3691  133.6093  153.7430 N.3     1  UNL1       -0.2665
     18 C         140.8794  132.9787  152.4731 C.3     1  UNL1        0.0899
     19 C         141.2703  139.5004  163.3839 C.ar    1  UNL1        0.1347
     20 C         142.6039  139.6185  164.0603 C.ar    1  UNL1        0.0238
     21 C         142.7237  140.3622  165.3575 C.ar    1  UNL1        0.0032
     22 C         141.5099  140.9878  165.9782 C.ar    1  UNL1        0.0192
     23 C         140.1763  140.8697  165.3018 C.ar    1  UNL1        0.0989
     24 N         140.0565  140.1260  164.0047 N.ar    1  UNL1       -0.2393
     25 C         141.6297  141.7315  167.2753 C.ar    1  UNL1        0.0015
     26 C         142.9408  141.7635  168.0032 C.ar    1  UNL1        0.0000
     27 C         143.0607  142.5072  169.3003 C.ar    1  UNL1        0.0000
     28 C         141.8693  143.2189  169.8696 C.ar    1  UNL1        0.0000
     29 C         140.5581  143.1869  169.1418 C.ar    1  UNL1        0.0000
     30 C         140.4383  142.4432  167.8446 C.ar    1  UNL1        0.0000
@<TRIPOS>BOND
     1    16    17    1
     2    17    18    1
     3    17    15    1
     4    15     5    1
     5     5     6   ar
     6     6     7   ar
     7     7     8   ar
     8     8     9   ar
     9     9    10   ar
    10     9    11    1
    11    11    12    1
    12    12    13    1
    13    13     1    1
    14     1     2    1
    15     1     3   am
    16     3     4    2
    17     3    19    1
    18    19    20   ar
    19    20    21   ar
    20    21    22   ar
    21    22    25    1
    22    25    26   ar
    23    26    27   ar
    24    27    28   ar
    25    28    29   ar
    26    29    30   ar
    27    22    23   ar
    28    23    24   ar
    29    13    14    1
    30    10     5   ar
    31    24    19   ar
    32    14     8    1
    33    30    25   ar
@<TRIPOS>MOLECULE
*****
 30 33 0 0 0
SMALL
GASTEIGER

@<TRIPOS>ATOM
      1 N         140.4009  139.6639  160.9506 N.am    1  UNL1       -0.2744
      2 C         140.2399  141.1482  161.0960 C.3     1  UNL1        0.1152
      3 C         140.4638  138.7933  162.1704 C.2     1  UNL1        0.2668
      4 O         140.6247  137.3090  162.0250 O.2     1  UNL1       -0.2683
      5 C         142.0502  136.5068  155.0716 C.ar    1  UNL1       -0.0065
      6 C         143.2097  136.4177  156.0189 C.ar    1  UNL1       -0.0033
      7 C         143.1118  137.0312  157.3841 C.ar    1  UNL1       -0.0048
      8 C         141.8543  137.7340  157.8021 C.ar    1  UNL1       -0.0245
      9 C         140.6947  137.8231  156.8548 C.ar    1  UNL1       -0.0263
     10 C         140.7926  137.2095  155.4896 C.ar    1  UNL1       -0.0075
     11 C         139.4371  138.5258  157.2728 C.3     1  UNL1        0.0277
     12 C         139.3391  139.1394  158.6380 C.3     1  UNL1        0.0248
     13 C         140.4988  139.0503  159.5853 C.3     1  UNL1        0.0804
     14 C         141.7563  138.3476  159.1673 C.3     1  UNL1        0.0458
     15 C         142.1481  135.8932  153.7063 C.3     1  UNL1        0.0992
     16 C         141.1971  134.1190  152.0639 C.3     1  UNL1        0.0899
     17 N         141.5804  134.5277  153.4553 N.3     1  UNL1       -0.2665
     18 C         141.3960  133.5708  154.5957 C.3     1  UNL1        0.0899
     19 C         140.3659  139.4068  163.5357 C.ar    1  UNL1        0.1347
     20 C         139.0789  139.3293  164.3022 C.ar    1  UNL1        0.0238
     21 C         138.9809  139.9429  165.6674 C.ar    1  UNL1        0.0032
     22 C         140.1700  140.6340  166.2662 C.ar    1  UNL1        0.0192
     23 C         141.4570  140.7115  165.4996 C.ar    1  UNL1        0.0989
     24 N         141.5549  140.0979  164.1344 N.ar    1  UNL1       -0.2393
     25 C         140.0720  141.2476  167.6314 C.ar    1  UNL1        0.0015
     26 C         140.5190  142.6624  167.8516 C.ar    1  UNL1        0.0000
     27 C         140.4211  143.2760  169.2169 C.ar    1  UNL1        0.0000
     28 C         139.8761  142.4748  170.3619 C.ar    1  UNL1        0.0000
     29 C         139.4292  141.0600  170.1417 C.ar    1  UNL1        0.0000
     30 C         139.5271  140.4464  168.7764 C.ar    1  UNL1        0.0000
@<TRIPOS>BOND
     1    16    17    1
     2    17    18    1
     3    17    15    1
     4    15     5    1
     5     5     6   ar
     6     6     7   ar
     7     7     8   ar
     8     8     9   ar
     9     9    10   ar
    10     9    11    1
    11    11    12    1
    12    12    13    1
    13    13     1    1
    14     1     2    1
    15     1     3   am
    16     3     4    2
    17     3    19    1
    18    19    20   ar
    19    20    21   ar
    20    21    22   ar
    21    22    25    1
    22    25    26   ar
    23    26    27   ar
    24    27    28   ar
    25    28    29   ar
    26    29    30   ar
    27    22    23   ar
    28    23    24   ar
    29    13    14    1
    30    10     5   ar
    31    24    19   ar
    32    14     8    1
    33    30    25   ar
@<TRIPOS>MOLECULE
*****
 30 33 0 0 0
SMALL
GASTEIGER

@<TRIPOS>ATOM
      1 N         141.2956  143.1181  161.4948 N.am    1  UNL1       -0.2744
      2 C         142.3313  142.4217  160.6625 C.3     1  UNL1        0.1152
      3 C         140.4369  144.1859  160.8846 C.2     1  UNL1        0.2668
      4 O         139.4014  144.8821  161.7169 O.2     1  UNL1       -0.2683
      5 C         139.7020  140.4814  167.6395 C.ar    1  UNL1       -0.0065
      6 C         138.9925  139.7023  166.5720 C.ar    1  UNL1       -0.0033
      7 C         139.1694  140.0738  165.1295 C.ar    1  UNL1       -0.0048
      8 C         140.0557  141.2244  164.7546 C.ar    1  UNL1       -0.0245
      9 C         140.7651  142.0035  165.8222 C.ar    1  UNL1       -0.0263
     10 C         140.5883  141.6319  167.2646 C.ar    1  UNL1       -0.0075
     11 C         141.6515  143.1541  165.4473 C.3     1  UNL1        0.0277
     12 C         141.8283  143.5256  164.0048 C.3     1  UNL1        0.0248
     13 C         141.1188  142.7465  162.9372 C.3     1  UNL1        0.0804
     14 C         140.2325  141.5959  163.3122 C.3     1  UNL1        0.0458
     15 C         139.5252  140.1098  169.0820 C.3     1  UNL1        0.0992
     16 C         141.8414  139.3343  169.9672 C.3     1  UNL1        0.0899
     17 N         140.6673  140.2648  170.0419 N.3     1  UNL1       -0.2665
     18 C         140.6355  141.3505  171.0765 C.3     1  UNL1        0.0899
     19 C         140.6138  144.5574  159.4422 C.ar    1  UNL1        0.1347
     20 C         139.7370  143.9372  158.3950 C.ar    1  UNL1        0.0238
     21 C         139.9138  144.3087  156.9526 C.ar    1  UNL1        0.0032
     22 C         140.9674  145.3005  156.5572 C.ar    1  UNL1        0.0192
     23 C         141.8442  145.9207  157.6044 C.ar    1  UNL1        0.0989
     24 N         141.6674  145.5491  159.0469 N.ar    1  UNL1       -0.2393
     25 C         141.1443  145.6720  155.1148 C.ar    1  UNL1        0.0015
     26 C         141.9205  144.7732  154.1985 C.ar    1  UNL1        0.0000
     27 C         142.0973  145.1447  152.7561 C.ar    1  UNL1        0.0000
     28 C         141.4979  146.4151  152.2299 C.ar    1  UNL1        0.0000
     29 C         140.7217  147.3139  153.1461 C.ar    1  UNL1        0.0000
     30 C         140.5449  146.9423  154.5886 C.ar    1  UNL1        0.0000
@<TRIPOS>BOND
     1    16    17    1
     2    17    18    1
     3    17    15    1
     4    15     5    1
     5     5     6   ar
     6     6     7   ar
     7     7     8   ar
     8     8     9   ar
     9     9    10   ar
    10     9    11    1
    11    11    12    1
    12    12    13    1
    13    13     1    1
    14     1     2    1
    15     1     3   am
    16     3     4    2
    17     3    19    1
    18    19    20   ar
    19    20    21   ar
    20    21    22   ar
    21    22    25    1
    22    25    26   ar
    23    26    27   ar
    24    27    28   ar
    25    28    29   ar
    26    29    30   ar
    27    22    23   ar
    28    23    24   ar
    29    13    14    1
    30    10     5   ar
    31    24    19   ar
    32    14     8    1
    33    30    25   ar
@<TRIPOS>MOLECULE
*****
 30 33 0 0 0
SMALL
GASTEIGER

@<TRIPOS>ATOM
      1 N         141.1553  142.9661  161.8365 N.am    1  UNL1       -0.2744
      2 C         140.0314  142.4569  160.9835 C.3     1  UNL1        0.1152
      3 C         142.1947  143.8718  161.2453 C.2     1  UNL1        0.2668
      4 O         143.3185  144.3810  162.0984 O.2     1  UNL1       -0.2683
      5 C         142.1917  140.1118  168.0032 C.ar    1  UNL1       -0.0065
      6 C         142.8059  139.2394  166.9489 C.ar    1  UNL1       -0.0033
      7 C         142.7214  139.6358  165.5047 C.ar    1  UNL1       -0.0048
      8 C         142.0228  140.9046  165.1148 C.ar    1  UNL1       -0.0245
      9 C         141.4086  141.7770  166.1691 C.ar    1  UNL1       -0.0263
     10 C         141.4931  141.3806  167.6134 C.ar    1  UNL1       -0.0075
     11 C         140.7100  143.0458  165.7793 C.3     1  UNL1        0.0277
     12 C         140.6255  143.4422  164.3351 C.3     1  UNL1        0.0248
     13 C         141.2398  142.5698  163.2807 C.3     1  UNL1        0.0804
     14 C         141.9384  141.3010  163.6706 C.3     1  UNL1        0.0458
     15 C         142.2761  139.7154  169.4474 C.3     1  UNL1        0.0992
     16 C         140.0072  139.8833  170.7019 C.3     1  UNL1        0.0899
     17 N         141.3994  140.3875  170.4621 N.3     1  UNL1       -0.2665
     18 C         141.9149  141.5638  171.2371 C.3     1  UNL1        0.0899
     19 C         142.1103  144.2682  159.8011 C.ar    1  UNL1        0.1347
     20 C         142.8101  143.4500  158.7567 C.ar    1  UNL1        0.0238
     21 C         142.7256  143.8464  157.3125 C.ar    1  UNL1        0.0032
     22 C         141.9414  145.0609  156.9127 C.ar    1  UNL1        0.0192
     23 C         141.2416  145.8791  157.9571 C.ar    1  UNL1        0.0989
     24 N         141.3260  145.4827  159.4014 N.ar    1  UNL1       -0.2393
     25 C         141.8570  145.4573  155.4685 C.ar    1  UNL1        0.0015
     26 C         142.8213  144.8806  154.4749 C.ar    1  UNL1        0.0000
     27 C         142.7369  145.2770  153.0306 C.ar    1  UNL1        0.0000
     28 C         141.6881  146.2501  152.5801 C.ar    1  UNL1        0.0000
     29 C         140.7237  146.8268  153.5737 C.ar    1  UNL1        0.0000
     30 C         140.8082  146.4304  155.0179 C.ar    1  UNL1        0.0000
@<TRIPOS>BOND
     1    16    17    1
     2    17    18    1
     3    17    15    1
     4    15     5    1
     5     5     6   ar
     6     6     7   ar
     7     7     8   ar
     8     8     9   ar
     9     9    10   ar
    10     9    11    1
    11    11    12    1
    12    12    13    1
    13    13     1    1
    14     1     2    1
    15     1     3   am
    16     3     4    2
    17     3    19    1
    18    19    20   ar
    19    20    21   ar
    20    21    22   ar
    21    22    25    1
    22    25    26   ar
    23    26    27   ar
    24    27    28   ar
    25    28    29   ar
    26    29    30   ar
    27    22    23   ar
    28    23    24   ar
    29    13    14    1
    30    10     5   ar
    31    24    19   ar
    32    14     8    1
    33    30    25   ar
@<TRIPOS>MOLECULE
*****
 30 33 0 0 0
SMALL
GASTEIGER

@<TRIPOS>ATOM
      1 N         141.8609  143.8343  161.6868 N.am    1  UNL1       -0.2744
      2 C         142.7324  144.6143  162.6260 C.3     1  UNL1        0.1152
      3 C         140.9140  142.8026  162.2244 C.2     1  UNL1        0.2668
      4 O         140.0426  142.0227  161.2852 O.2     1  UNL1       -0.2683
      5 C         141.2129  145.8063  155.1339 C.ar    1  UNL1       -0.0065
      6 C         140.1880  146.5196  155.9649 C.ar    1  UNL1       -0.0033
      7 C         140.1126  146.2679  157.4417 C.ar    1  UNL1       -0.0048
      8 C         141.0621  145.3028  158.0875 C.ar    1  UNL1       -0.0245
      9 C         142.0870  144.5895  157.2564 C.ar    1  UNL1       -0.0263
     10 C         142.1624  144.8413  155.7796 C.ar    1  UNL1       -0.0075
     11 C         143.0366  143.6244  157.9021 C.3     1  UNL1        0.0277
     12 C         142.9612  143.3727  159.3789 C.3     1  UNL1        0.0248
     13 C         141.9363  144.0860  160.2100 C.3     1  UNL1        0.0804
     14 C         140.9867  145.0511  159.5643 C.3     1  UNL1        0.0458
     15 C         141.2882  146.0581  153.6571 C.3     1  UNL1        0.0992
     16 C         143.5868  145.7100  152.4972 C.3     1  UNL1        0.0899
     17 N         142.1987  145.2291  152.8004 N.3     1  UNL1       -0.2665
     18 C         141.7211  143.9193  152.2470 C.3     1  UNL1        0.0899
     19 C         140.8387  142.5508  163.7012 C.ar    1  UNL1        0.1347
     20 C         139.9457  143.3951  164.5613 C.ar    1  UNL1        0.0238
     21 C         139.8704  143.1434  166.0381 C.ar    1  UNL1        0.0032
     22 C         140.6879  142.0473  166.6548 C.ar    1  UNL1        0.0192
     23 C         141.5808  141.2031  165.7946 C.ar    1  UNL1        0.0989
     24 N         141.6562  141.4548  164.3178 N.ar    1  UNL1       -0.2393
     25 C         140.6125  141.7956  168.1316 C.ar    1  UNL1        0.0015
     26 C         140.5309  142.9499  169.0860 C.ar    1  UNL1        0.0000
     27 C         140.4555  142.6981  170.5628 C.ar    1  UNL1        0.0000
     28 C         140.4618  141.2921  171.0852 C.ar    1  UNL1        0.0000
     29 C         140.5435  140.1378  170.1308 C.ar    1  UNL1        0.0000
     30 C         140.6188  140.3896  168.6540 C.ar    1  UNL1        0.0000
@<TRIPOS>BOND
     1    16    17    1
     2    17    18    1
     3    17    15    1
     4    15     5    1
     5     5     6   ar
     6     6     7   ar
     7     7     8   ar
     8     8     9   ar
     9     9    10   ar
    10     9    11    1
    11    11    12    1
    12    12    13    1
    13    13     1    1
    14     1     2    1
    15     1     3   am
    16     3     4    2
    17     3    19    1
    18    19    20   ar
    19    20    21   ar
    20    21    22   ar
    21    22    25    1
    22    25    26   ar
    23    26    27   ar
    24    27    28   ar
    25    28    29   ar
    26    29    30   ar
    27    22    23   ar
    28    23    24   ar
    29    13    14    1
    30    10     5   ar
    31    24    19   ar
    32    14     8    1
    33    30    25   ar
@<TRIPOS>MOLECULE
*****
 30 33 0 0 0
SMALL
GASTEIGER

@<TRIPOS>ATOM
      1 N         142.2479  141.9494  160.8617 N.am    1  UNL1       -0.2744
      2 C         141.8667  140.5668  161.3012 C.3     1  UNL1        0.1152
      3 C         142.1995  143.0869  161.8382 C.2     1  UNL1        0.2668
      4 O         142.5807  144.4694  161.3986 O.2     1  UNL1       -0.2683
      5 C         145.4126  142.8036  154.8197 C.ar    1  UNL1       -0.0065
      6 C         146.4292  142.4328  155.8584 C.ar    1  UNL1       -0.0033
      7 C         145.9996  142.1878  157.2745 C.ar    1  UNL1       -0.0048
      8 C         144.5534  142.3136  157.6520 C.ar    1  UNL1       -0.0245
      9 C         143.5367  142.6844  156.6133 C.ar    1  UNL1       -0.0263
     10 C         143.9663  142.9294  155.1972 C.ar    1  UNL1       -0.0075
     11 C         142.0904  142.8102  156.9907 C.3     1  UNL1        0.0277
     12 C         141.6608  142.5652  158.4068 C.3     1  UNL1        0.0248
     13 C         142.6775  142.1944  159.4455 C.3     1  UNL1        0.0804
     14 C         144.1238  142.0686  159.0681 C.3     1  UNL1        0.0458
     15 C         145.8422  143.0486  153.4036 C.3     1  UNL1        0.0992
     16 C         148.2814  143.0246  152.5094 C.3     1  UNL1        0.0899
     17 N         147.1302  143.7645  153.1238 N.3     1  UNL1       -0.2665
     18 C         147.2672  145.2204  153.4583 C.3     1  UNL1        0.0899
     19 C         141.7699  142.8419  163.2543 C.ar    1  UNL1        0.1347
     20 C         142.7883  142.4835  164.2957 C.ar    1  UNL1        0.0238
     21 C         142.3587  142.2384  165.7118 C.ar    1  UNL1        0.0032
     22 C         140.9107  142.3519  166.0866 C.ar    1  UNL1        0.0192
     23 C         139.8924  142.7103  165.0453 C.ar    1  UNL1        0.0989
     24 N         140.3220  142.9553  163.6291 N.ar    1  UNL1       -0.2393
     25 C         140.4811  142.1069  167.5027 C.ar    1  UNL1        0.0015
     26 C         140.5594  143.2134  168.5123 C.ar    1  UNL1        0.0000
     27 C         140.1298  142.9684  169.9285 C.ar    1  UNL1        0.0000
     28 C         139.6219  141.6169  170.3350 C.ar    1  UNL1        0.0000
     29 C         139.5437  140.5103  169.3254 C.ar    1  UNL1        0.0000
     30 C         139.9732  140.7553  167.9092 C.ar    1  UNL1        0.0000
@<TRIPOS>BOND
     1    16    17    1
     2    17    18    1
     3    17    15    1
     4    15     5    1
     5     5     6   ar
     6     6     7   ar
     7     7     8   ar
     8     8     9   ar
     9     9    10   ar
    10     9    11    1
    11    11    12    1
    12    12    13    1
    13    13     1    1
    14     1     2    1
    15     1     3   am
    16     3     4    2
    17     3    19    1
    18    19    20   ar
    19    20    21   ar
    20    21    22   ar
    21    22    25    1
    22    25    26   ar
    23    26    27   ar
    24    27    28   ar
    25    28    29   ar
    26    29    30   ar
    27    22    23   ar
    28    23    24   ar
    29    13    14    1
    30    10     5   ar
    31    24    19   ar
    32    14     8    1
    33    30    25   ar
