@<TRIPOS>MOLECULE
*****
 26 28 0 0 0
SMALL
GASTEIGER

@<TRIPOS>ATOM
      1 C         140.4259  139.1042  164.6785 C.2     1  UNL1        0.0596
      2 C         141.1114  139.7871  163.5323 C.2     1  UNL1        0.0324
      3 C         140.7752  139.4039  162.1216 C.2     1  UNL1        0.0889
      4 N         141.2826  139.8979  160.7993 N.2     1  UNL1       -0.2236
      5 C         140.5746  139.1372  159.7176 C.2     1  UNL1        0.1859
      6 N         139.6296  138.1731  160.3714 N.2     1  UNL1       -0.2387
      7 C         139.7535  138.3379  161.8571 C.3     1  UNL1        0.1679
      8 C         139.0681  137.6551  163.0034 C.2     1  UNL1        0.0164
      9 C         139.4044  138.0383  164.4141 C.2     1  UNL1        0.0690
     10 CL        138.7189  137.3554  165.5604 Cl      1  UNL1       -0.0812
     11 N         141.4346  140.2537  168.9108 N.3     1  UNL1       -0.2635
     12 C         140.1020  140.6241  168.3303 C.3     1  UNL1        0.0941
     13 C         139.7658  140.2410  166.9196 C.3     1  UNL1        0.1081
     14 N         140.7622  139.4874  166.0893 N.pl3   1  UNL1       -0.3056
     15 C         142.0948  139.1169  166.6698 C.3     1  UNL1        0.0889
     16 C         143.0911  138.3632  165.8395 C.3     1  UNL1        0.0229
     17 C         142.4310  139.5000  168.0805 C.3     1  UNL1        0.0924
     18 C         141.7709  140.6368  170.3215 C.3     1  UNL1        0.1377
     19 C         142.0423  143.2141  170.1370 C.3     1  UNL1        0.0738
     20 C         141.4537  142.0155  170.8201 C.2     1  UNL1        0.1672
     21 O         140.5478  142.1954  172.0021 O.2     1  UNL1       -0.2946
     22 S         140.7762  139.3102  158.2413 S.3     1  UNL1       -0.0777
     23 C         141.0194  138.1122  157.3721 C.3     1  UNL1        0.0461
     24 C         142.3761  137.9404  157.9883 C.3     1  UNL1        0.0113
     25 C         139.6627  138.2840  156.7558 C.3     1  UNL1        0.0113
     26 C         141.2625  136.9142  156.5028 C.3     1  UNL1        0.0113
@<TRIPOS>BOND
     1    19    20    1
     2    20    21    2
     3    20    18    1
     4    18    11    1
     5    11    12    1
     6    12    13    1
     7    13    14    1
     8    14     1    1
     9     1     2    2
    10     2     3    1
    11     3     4    2
    12     4     5    1
    13     5    22    1
    14    22    23    1
    15    23    24    1
    16    23    25    1
    17    23    26    1
    18     5     6    2
    19     6     7    1
    20     7     8    1
    21     8     9    2
    22     9    10    1
    23    14    15    1
    24    15    16    1
    25    15    17    1
    26    17    11    1
    27     9     1    1
    28     7     3    1
@<TRIPOS>MOLECULE
*****
 26 28 0 0 0
SMALL
GASTEIGER

@<TRIPOS>ATOM
      1 C         140.2583  143.2078  164.1088 C.2     1  UNL1        0.0596
      2 C         140.9526  142.8032  162.8421 C.2     1  UNL1        0.0324
      3 C         140.7692  143.6149  161.5942 C.2     1  UNL1        0.0889
      4 N         141.3209  143.4626  160.2077 N.2     1  UNL1       -0.2236
      5 C         140.7842  144.5848  159.3695 C.2     1  UNL1        0.1859
      6 N         139.9008  145.4306  160.2379 N.2     1  UNL1       -0.2387
      7 C         139.8915  144.8312  161.6129 C.3     1  UNL1        0.1679
      8 C         139.1973  145.2357  162.8795 C.2     1  UNL1        0.0164
      9 C         139.3807  144.4240  164.1274 C.2     1  UNL1        0.0690
     10 CL        138.6864  144.8286  165.3941 Cl      1  UNL1       -0.0812
     11 N         140.8086  140.7725  167.8528 N.3     1  UNL1       -0.2635
     12 C         141.7969  141.8458  167.5042 C.3     1  UNL1        0.0941
     13 C         141.6134  142.6575  166.2562 C.3     1  UNL1        0.1081
     14 N         140.4418  142.3960  165.3568 N.pl3   1  UNL1       -0.3056
     15 C         139.4535  141.3227  165.7055 C.3     1  UNL1        0.0889
     16 C         138.2819  141.0613  164.8060 C.3     1  UNL1        0.0229
     17 C         139.6370  140.5110  166.9534 C.3     1  UNL1        0.0924
     18 C         140.9920  139.9608  169.1007 C.3     1  UNL1        0.1377
     19 C         140.7847  141.6499  171.0639 C.3     1  UNL1        0.0738
     20 C         140.3371  140.3926  170.3793 C.2     1  UNL1        0.1672
     21 O         139.2346  139.5669  170.9733 O.2     1  UNL1       -0.2946
     22 S         141.0791  144.8199  157.9176 S.3     1  UNL1       -0.0777
     23 C         139.9614  144.8299  156.9173 C.3     1  UNL1        0.0461
     24 C         139.7958  143.3489  157.0875 C.3     1  UNL1        0.0113
     25 C         140.1271  146.3110  156.7471 C.3     1  UNL1        0.0113
     26 C         138.8438  144.8400  155.9170 C.3     1  UNL1        0.0113
@<TRIPOS>BOND
     1    19    20    1
     2    20    21    2
     3    20    18    1
     4    18    11    1
     5    11    12    1
     6    12    13    1
     7    13    14    1
     8    14     1    1
     9     1     2    2
    10     2     3    1
    11     3     4    2
    12     4     5    1
    13     5    22    1
    14    22    23    1
    15    23    24    1
    16    23    25    1
    17    23    26    1
    18     5     6    2
    19     6     7    1
    20     7     8    1
    21     8     9    2
    22     9    10    1
    23    14    15    1
    24    15    16    1
    25    15    17    1
    26    17    11    1
    27     9     1    1
    28     7     3    1
@<TRIPOS>MOLECULE
*****
 26 28 0 0 0
SMALL
GASTEIGER

@<TRIPOS>ATOM
      1 C         140.1329  139.5028  164.5998 C.2     1  UNL1        0.0596
      2 C         140.5786  140.4683  163.5418 C.2     1  UNL1        0.0324
      3 C         140.2024  140.2364  162.1084 C.2     1  UNL1        0.0889
      4 N         140.4945  141.0091  160.8564 N.2     1  UNL1       -0.2236
      5 C         139.8532  140.2893  159.7072 C.2     1  UNL1        0.1859
      6 N         139.1648  139.0717  160.2490 N.2     1  UNL1       -0.2387
      7 C         139.3806  139.0389  161.7330 C.3     1  UNL1        0.1679
      8 C         138.9350  138.0735  162.7910 C.2     1  UNL1        0.0164
      9 C         139.3112  138.3055  164.2244 C.2     1  UNL1        0.0690
     10 CL        138.8655  137.3400  165.2824 Cl      1  UNL1       -0.0812
     11 N         141.2615  140.1988  168.9001 N.3     1  UNL1       -0.2635
     12 C         139.9113  140.6209  168.4013 C.3     1  UNL1        0.0941
     13 C         139.5351  140.3889  166.9679 C.3     1  UNL1        0.1081
     14 N         140.5091  139.7348  166.0333 N.pl3   1  UNL1       -0.3056
     15 C         141.8593  139.3127  166.5321 C.3     1  UNL1        0.0889
     16 C         142.8333  138.6585  165.5974 C.3     1  UNL1        0.0229
     17 C         142.2355  139.5446  167.9655 C.3     1  UNL1        0.0924
     18 C         141.6377  140.4307  170.3335 C.3     1  UNL1        0.1377
     19 C         142.5459  142.8647  170.3651 C.3     1  UNL1        0.0738
     20 C         141.6128  141.8193  170.9002 C.2     1  UNL1        0.1672
     21 O         140.6546  142.1625  172.0021 O.2     1  UNL1       -0.2946
     22 S         139.8932  140.7128  158.2688 S.3     1  UNL1       -0.0777
     23 C         138.6165  140.8688  157.4971 C.3     1  UNL1        0.0461
     24 C         138.9662  139.6639  156.6749 C.3     1  UNL1        0.0113
     25 C         138.2668  142.0737  158.3192 C.3     1  UNL1        0.0113
     26 C         137.3398  141.0249  156.7253 C.3     1  UNL1        0.0113
@<TRIPOS>BOND
     1    19    20    1
     2    20    21    2
     3    20    18    1
     4    18    11    1
     5    11    12    1
     6    12    13    1
     7    13    14    1
     8    14     1    1
     9     1     2    2
    10     2     3    1
    11     3     4    2
    12     4     5    1
    13     5    22    1
    14    22    23    1
    15    23    24    1
    16    23    25    1
    17    23    26    1
    18     5     6    2
    19     6     7    1
    20     7     8    1
    21     8     9    2
    22     9    10    1
    23    14    15    1
    24    15    16    1
    25    15    17    1
    26    17    11    1
    27     9     1    1
    28     7     3    1
@<TRIPOS>MOLECULE
*****
 26 28 0 0 0
SMALL
GASTEIGER

@<TRIPOS>ATOM
      1 C         140.0233  139.5573  163.4776 C.2     1  UNL1        0.0596
      2 C         140.5165  140.4143  164.6056 C.2     1  UNL1        0.0324
      3 C         139.9889  140.2034  165.9938 C.2     1  UNL1        0.0889
      4 N         140.2855  140.8882  167.2950 N.2     1  UNL1       -0.2236
      5 C         139.4480  140.2436  168.3594 C.2     1  UNL1        0.1859
      6 N         138.6337  139.1604  167.7161 N.2     1  UNL1       -0.2387
      7 C         138.9681  139.1356  166.2540 C.3     1  UNL1        0.1679
      8 C         138.4749  138.2787  165.1260 C.2     1  UNL1        0.0164
      9 C         139.0025  138.4896  163.7378 C.2     1  UNL1        0.0690
     10 CL        138.5092  137.6325  162.6098 Cl      1  UNL1       -0.0812
     11 N         141.6061  140.1899  159.3129 N.3     1  UNL1       -0.2635
     12 C         140.4125  140.9646  159.7873 C.3     1  UNL1        0.0941
     13 C         139.8849  140.7537  161.1755 C.3     1  UNL1        0.1081
     14 N         140.5509  139.7681  162.0893 N.pl3   1  UNL1       -0.3056
     15 C         141.7445  138.9934  161.6149 C.3     1  UNL1        0.0889
     16 C         142.4105  138.0078  162.5288 C.3     1  UNL1        0.0229
     17 C         142.2721  139.2043  160.2267 C.3     1  UNL1        0.0924
     18 C         142.1338  140.4007  157.9247 C.3     1  UNL1        0.1377
     19 C         142.9630  138.2537  156.7191 C.3     1  UNL1        0.0738
     20 C         143.2585  139.5504  157.4127 C.2     1  UNL1        0.1672
     21 O         144.6789  139.9970  157.5944 O.2     1  UNL1       -0.2946
     22 S         139.4281  140.6166  169.8122 S.3     1  UNL1       -0.0777
     23 C         140.6427  141.2266  170.4466 C.3     1  UNL1        0.0461
     24 C         139.9755  142.5700  170.4323 C.3     1  UNL1        0.0113
     25 C         141.3100  139.8833  170.4608 C.3     1  UNL1        0.0113
     26 C         141.8574  141.8367  171.0809 C.3     1  UNL1        0.0113
@<TRIPOS>BOND
     1    19    20    1
     2    20    21    2
     3    20    18    1
     4    18    11    1
     5    11    12    1
     6    12    13    1
     7    13    14    1
     8    14     1    1
     9     1     2    2
    10     2     3    1
    11     3     4    2
    12     4     5    1
    13     5    22    1
    14    22    23    1
    15    23    24    1
    16    23    25    1
    17    23    26    1
    18     5     6    2
    19     6     7    1
    20     7     8    1
    21     8     9    2
    22     9    10    1
    23    14    15    1
    24    15    16    1
    25    15    17    1
    26    17    11    1
    27     9     1    1
    28     7     3    1
@<TRIPOS>MOLECULE
*****
 26 28 0 0 0
SMALL
GASTEIGER

@<TRIPOS>ATOM
      1 C         141.8329  139.3551  164.2537 C.2     1  UNL1        0.0596
      2 C         142.4401  140.4196  163.3887 C.2     1  UNL1        0.0324
      3 C         142.7706  140.1235  161.9558 C.2     1  UNL1        0.0889
      4 N         143.3710  140.9658  160.8696 N.2     1  UNL1       -0.2236
      5 C         143.4654  140.1259  159.6304 C.2     1  UNL1        0.1859
      6 N         142.9233  138.7645  159.9508 N.2     1  UNL1       -0.2387
      7 C         142.4939  138.7630  161.3880 C.3     1  UNL1        0.1679
      8 C         141.8866  137.6986  162.2530 C.2     1  UNL1        0.0164
      9 C         141.5561  137.9947  163.6858 C.2     1  UNL1        0.0690
     10 CL        140.9489  136.9301  164.5508 Cl      1  UNL1       -0.0812
     11 N         140.8413  140.2433  168.5523 N.3     1  UNL1       -0.2635
     12 C         139.8875  140.6409  167.4650 C.3     1  UNL1        0.0941
     13 C         140.2180  140.3448  166.0322 C.3     1  UNL1        0.1081
     14 N         141.5023  139.6512  165.6866 N.pl3   1  UNL1       -0.3056
     15 C         142.4561  139.2536  166.7739 C.3     1  UNL1        0.0889
     16 C         143.7404  138.5599  166.4282 C.3     1  UNL1        0.0229
     17 C         142.1256  139.5497  168.2068 C.3     1  UNL1        0.0924
     18 C         140.5109  140.5393  169.9852 C.3     1  UNL1        0.1377
     19 C         141.5577  142.9045  169.7395 C.3     1  UNL1        0.0738
     20 C         140.8980  141.8576  170.5873 C.2     1  UNL1        0.1672
     21 O         140.6255  142.1288  172.0371 O.2     1  UNL1       -0.2946
     22 S         144.0068  140.5695  158.3037 S.3     1  UNL1       -0.0777
     23 C         143.5692  141.8777  157.7146 C.3     1  UNL1        0.0461
     24 C         144.9274  142.4539  157.9853 C.3     1  UNL1        0.0113
     25 C         142.2110  141.3015  157.4439 C.3     1  UNL1        0.0113
     26 C         143.1316  143.1859  157.1254 C.3     1  UNL1        0.0113
@<TRIPOS>BOND
     1    19    20    1
     2    20    21    2
     3    20    18    1
     4    18    11    1
     5    11    12    1
     6    12    13    1
     7    13    14    1
     8    14     1    1
     9     1     2    2
    10     2     3    1
    11     3     4    2
    12     4     5    1
    13     5    22    1
    14    22    23    1
    15    23    24    1
    16    23    25    1
    17    23    26    1
    18     5     6    2
    19     6     7    1
    20     7     8    1
    21     8     9    2
    22     9    10    1
    23    14    15    1
    24    15    16    1
    25    15    17    1
    26    17    11    1
    27     9     1    1
    28     7     3    1
@<TRIPOS>MOLECULE
*****
 26 28 0 0 0
SMALL
GASTEIGER

@<TRIPOS>ATOM
      1 C         140.6607  139.4752  164.2849 C.2     1  UNL1        0.0596
      2 C         140.4021  140.6003  163.3270 C.2     1  UNL1        0.0324
      3 C         140.3871  140.3392  161.8500 C.2     1  UNL1        0.0889
      4 N         140.1616  141.2419  160.6734 N.2     1  UNL1       -0.2236
      5 C         140.2659  140.4137  159.4271 C.2     1  UNL1        0.1859
      6 N         140.5560  138.9992  159.8334 N.2     1  UNL1       -0.2387
      7 C         140.6309  138.9531  161.3308 C.3     1  UNL1        0.1679
      8 C         140.8895  137.8282  162.2887 C.2     1  UNL1        0.0164
      9 C         140.9044  138.0893  163.7657 C.2     1  UNL1        0.0690
     10 CL        141.1631  136.9642  164.7236 Cl      1  UNL1       -0.0812
     11 N         140.7055  140.2584  168.7160 N.3     1  UNL1       -0.2635
     12 C         141.9754  140.3580  167.9239 C.3     1  UNL1        0.0941
     13 C         141.9605  140.0969  166.4469 C.3     1  UNL1        0.1081
     14 N         140.6756  139.7363  165.7620 N.pl3   1  UNL1       -0.3056
     15 C         139.4057  139.6367  166.5541 C.3     1  UNL1        0.0889
     16 C         138.1209  139.2760  165.8690 C.3     1  UNL1        0.0229
     17 C         139.4207  139.8978  168.0311 C.3     1  UNL1        0.0924
     18 C         140.7204  140.5194  170.1930 C.3     1  UNL1        0.1377
     19 C         140.2088  143.0565  169.9646 C.3     1  UNL1        0.0738
     20 C         140.8540  141.9229  170.7053 C.2     1  UNL1        0.1672
     21 O         141.6331  142.1929  171.9584 O.2     1  UNL1       -0.2946
     22 S         140.1080  140.9125  158.0213 S.3     1  UNL1       -0.0777
     23 C         138.9417  141.7843  157.6614 C.3     1  UNL1        0.0461
     24 C         138.0127  140.6234  157.8597 C.3     1  UNL1        0.0113
     25 C         139.8706  142.9452  157.4631 C.3     1  UNL1        0.0113
     26 C         137.7753  142.6561  157.3015 C.3     1  UNL1        0.0113
@<TRIPOS>BOND
     1    19    20    1
     2    20    21    2
     3    20    18    1
     4    18    11    1
     5    11    12    1
     6    12    13    1
     7    13    14    1
     8    14     1    1
     9     1     2    2
    10     2     3    1
    11     3     4    2
    12     4     5    1
    13     5    22    1
    14    22    23    1
    15    23    24    1
    16    23    25    1
    17    23    26    1
    18     5     6    2
    19     6     7    1
    20     7     8    1
    21     8     9    2
    22     9    10    1
    23    14    15    1
    24    15    16    1
    25    15    17    1
    26    17    11    1
    27     9     1    1
    28     7     3    1
@<TRIPOS>MOLECULE
*****
 26 28 0 0 0
SMALL
GASTEIGER

@<TRIPOS>ATOM
      1 C         140.5253  139.1561  163.6689 C.2     1  UNL1        0.0596
      2 C         141.1855  140.1065  164.6234 C.2     1  UNL1        0.0324
      3 C         140.6385  140.2781  166.0095 C.2     1  UNL1        0.0889
      4 N         141.0737  141.1348  167.1612 N.2     1  UNL1       -0.2236
      5 C         140.1355  140.8856  168.3047 C.2     1  UNL1        0.1859
      6 N         139.1205  139.8748  167.8597 N.2     1  UNL1       -0.2387
      7 C         139.4313  139.4994  166.4411 C.3     1  UNL1        0.1679
      8 C         138.7712  138.5490  165.4867 C.2     1  UNL1        0.0164
      9 C         139.3182  138.3774  164.1005 C.2     1  UNL1        0.0690
     10 CL        138.6580  137.4270  163.1461 Cl      1  UNL1       -0.0812
     11 N         142.1663  138.6412  159.5105 N.3     1  UNL1       -0.2635
     12 C         142.6780  137.7841  160.6301 C.3     1  UNL1        0.0941
     13 C         142.1310  137.9558  162.0162 C.3     1  UNL1        0.1081
     14 N         141.0723  138.9845  162.2827 N.pl3   1  UNL1       -0.3056
     15 C         140.5606  139.8415  161.1631 C.3     1  UNL1        0.0889
     16 C         139.5019  140.8702  161.4296 C.3     1  UNL1        0.0229
     17 C         141.1077  139.6699  159.7770 C.3     1  UNL1        0.0924
     18 C         142.7133  138.4697  158.1244 C.3     1  UNL1        0.1377
     19 C         141.2487  137.3718  156.2804 C.3     1  UNL1        0.0738
     20 C         142.3331  137.2676  157.3115 C.2     1  UNL1        0.1672
     21 O         143.0375  135.9614  157.5298 O.2     1  UNL1       -0.2946
     22 S         140.2008  141.5333  169.6561 S.3     1  UNL1       -0.0777
     23 C         141.4109  142.3277  170.0493 C.3     1  UNL1        0.0461
     24 C         142.1220  141.0605  170.4211 C.3     1  UNL1        0.0113
     25 C         140.6997  143.5950  169.6775 C.3     1  UNL1        0.0113
     26 C         142.6209  143.1222  170.4425 C.3     1  UNL1        0.0113
@<TRIPOS>BOND
     1    19    20    1
     2    20    21    2
     3    20    18    1
     4    18    11    1
     5    11    12    1
     6    12    13    1
     7    13    14    1
     8    14     1    1
     9     1     2    2
    10     2     3    1
    11     3     4    2
    12     4     5    1
    13     5    22    1
    14    22    23    1
    15    23    24    1
    16    23    25    1
    17    23    26    1
    18     5     6    2
    19     6     7    1
    20     7     8    1
    21     8     9    2
    22     9    10    1
    23    14    15    1
    24    15    16    1
    25    15    17    1
    26    17    11    1
    27     9     1    1
    28     7     3    1
@<TRIPOS>MOLECULE
*****
 26 28 0 0 0
SMALL
GASTEIGER

@<TRIPOS>ATOM
      1 C         142.6530  139.8234  164.2522 C.2     1  UNL1        0.0596
      2 C         141.3527  139.8536  163.5048 C.2     1  UNL1        0.0324
      3 C         141.2972  139.3954  162.0776 C.2     1  UNL1        0.0889
      4 N         140.1682  139.3113  161.0937 N.2     1  UNL1       -0.2236
      5 C         140.7151  138.7709  159.8057 C.2     1  UNL1        0.1859
      6 N         142.1822  138.5209  159.9937 N.2     1  UNL1       -0.2387
      7 C         142.5419  138.9069  161.3978 C.3     1  UNL1        0.1679
      8 C         143.8421  138.8767  162.1452 C.2     1  UNL1        0.0164
      9 C         143.8976  139.3350  163.5724 C.2     1  UNL1        0.0690
     10 CL        145.1979  139.3047  164.3198 Cl      1  UNL1       -0.0812
     11 N         142.8194  141.1981  168.5339 N.3     1  UNL1       -0.2635
     12 C         142.4938  139.7685  168.2173 C.3     1  UNL1        0.0941
     13 C         142.4383  139.3103  166.7901 C.3     1  UNL1        0.1081
     14 N         142.7085  140.2816  165.6795 N.pl3   1  UNL1       -0.3056
     15 C         143.0341  141.7112  165.9961 C.3     1  UNL1        0.0889
     16 C         143.3042  142.6826  164.8854 C.3     1  UNL1        0.0229
     17 C         143.0895  142.1694  167.4233 C.3     1  UNL1        0.0924
     18 C         142.8749  141.6564  169.9611 C.3     1  UNL1        0.1377
     19 C         141.0204  143.4759  169.9672 C.3     1  UNL1        0.0738
     20 C         142.4087  143.0349  170.3248 C.2     1  UNL1        0.1672
     21 O         143.3310  143.9725  171.0461 O.2     1  UNL1       -0.2946
     22 S         139.9324  138.5237  158.5502 S.3     1  UNL1       -0.0777
     23 C         140.4944  138.9374  157.2224 C.3     1  UNL1        0.0461
     24 C         140.2866  140.3784  157.5834 C.3     1  UNL1        0.0113
     25 C         140.7021  137.4963  156.8615 C.3     1  UNL1        0.0113
     26 C         141.0564  139.3510  155.8946 C.3     1  UNL1        0.0113
@<TRIPOS>BOND
     1    19    20    1
     2    20    21    2
     3    20    18    1
     4    18    11    1
     5    11    12    1
     6    12    13    1
     7    13    14    1
     8    14     1    1
     9     1     2    2
    10     2     3    1
    11     3     4    2
    12     4     5    1
    13     5    22    1
    14    22    23    1
    15    23    24    1
    16    23    25    1
    17    23    26    1
    18     5     6    2
    19     6     7    1
    20     7     8    1
    21     8     9    2
    22     9    10    1
    23    14    15    1
    24    15    16    1
    25    15    17    1
    26    17    11    1
    27     9     1    1
    28     7     3    1
@<TRIPOS>MOLECULE
*****
 26 28 0 0 0
SMALL
GASTEIGER

@<TRIPOS>ATOM
      1 C         142.9666  142.2133  164.2403 C.2     1  UNL1        0.0596
      2 C         141.7826  142.9005  163.6271 C.2     1  UNL1        0.0324
      3 C         141.8733  143.4516  162.2350 C.2     1  UNL1        0.0889
      4 N         140.8790  144.1736  161.3746 N.2     1  UNL1       -0.2236
      5 C         141.5392  144.4837  160.0639 C.2     1  UNL1        0.1859
      6 N         142.9415  143.9533  160.1142 N.2     1  UNL1       -0.2387
      7 C         143.1479  143.3154  161.4560 C.3     1  UNL1        0.1679
      8 C         144.3318  142.6282  162.0692 C.2     1  UNL1        0.0164
      9 C         144.2411  142.0771  163.4614 C.2     1  UNL1        0.0690
     10 CL        145.4252  141.3899  164.0745 Cl      1  UNL1       -0.0812
     11 N         142.6946  140.5600  168.4168 N.3     1  UNL1       -0.2635
     12 C         143.0548  142.0003  168.2023 C.3     1  UNL1        0.0941
     13 C         143.1454  142.5513  166.8101 C.3     1  UNL1        0.1081
     14 N         142.8759  141.6622  165.6325 N.pl3   1  UNL1       -0.3056
     15 C         142.5157  140.2219  165.8471 C.3     1  UNL1        0.0889
     16 C         142.2462  139.3328  164.6694 C.3     1  UNL1        0.0229
     17 C         142.4251  139.6709  167.2392 C.3     1  UNL1        0.0924
     18 C         142.6039  140.0089  169.8089 C.3     1  UNL1        0.1377
     19 C         140.1015  140.0133  170.5077 C.3     1  UNL1        0.0738
     20 C         141.5128  140.4708  170.7288 C.2     1  UNL1        0.1672
     21 O         141.8330  141.3902  171.8699 O.2     1  UNL1       -0.2946
     22 S         140.9080  145.1986  158.9061 S.3     1  UNL1       -0.0777
     23 C         141.1271  144.7014  157.5080 C.3     1  UNL1        0.0461
     24 C         140.1874  143.5611  157.7663 C.3     1  UNL1        0.0113
     25 C         142.0668  145.8416  157.2497 C.3     1  UNL1        0.0113
     26 C         141.3462  144.2042  156.1099 C.3     1  UNL1        0.0113
@<TRIPOS>BOND
     1    19    20    1
     2    20    21    2
     3    20    18    1
     4    18    11    1
     5    11    12    1
     6    12    13    1
     7    13    14    1
     8    14     1    1
     9     1     2    2
    10     2     3    1
    11     3     4    2
    12     4     5    1
    13     5    22    1
    14    22    23    1
    15    23    24    1
    16    23    25    1
    17    23    26    1
    18     5     6    2
    19     6     7    1
    20     7     8    1
    21     8     9    2
    22     9    10    1
    23    14    15    1
    24    15    16    1
    25    15    17    1
    26    17    11    1
    27     9     1    1
    28     7     3    1
