@<TRIPOS>MOLECULE
*****
 30 33 0 0 0
SMALL
GASTEIGER

@<TRIPOS>ATOM
      1 O         143.4758  141.1747  160.9703 O.2     1  UNL1       -0.2698
      2 C         142.9109  142.4335  160.3820 C.2     1  UNL1        0.2524
      3 C         142.2401  143.3610  161.3515 C.ar    1  UNL1        0.0875
      4 C         142.2779  142.8149  162.7480 C.ar    1  UNL1        0.0076
      5 C         141.6598  143.5904  163.8734 C.ar    1  UNL1        0.0003
      6 C         141.0040  144.9119  163.6023 C.ar    1  UNL1        0.0031
      7 C         140.9661  145.4579  162.2058 C.ar    1  UNL1        0.0370
      8 C         141.5842  144.6825  161.0804 C.ar    1  UNL1        0.1429
      9 O         141.4372  145.4028  159.7729 O.3     1  UNL1       -0.4735
     10 C         141.9097  144.9797  158.4136 C.3     1  UNL1        0.2268
     11 C         142.6460  143.7316  158.0261 C.3     1  UNL1        0.1414
     12 N         143.0916  142.5984  158.9021 N.am    1  UNL1       -0.2651
     13 C         141.6976  143.0443  165.2701 C.ar    1  UNL1        0.0002
     14 C         142.9857  142.5264  165.8382 C.ar    1  UNL1        0.0031
     15 C         143.0235  141.9804  167.2348 C.ar    1  UNL1        0.0372
     16 C         141.7733  141.9523  168.0632 C.ar    1  UNL1        0.1468
     17 C         140.4853  142.4702  167.4951 C.ar    1  UNL1        0.0372
     18 C         140.4475  143.0163  166.0985 C.ar    1  UNL1        0.0031
     19 O         141.8112  141.4063  169.4598 O.3     1  UNL1       -0.4045
     20 C         142.1643  139.9672  169.6931 C.3     1  UNL1        0.5753
     21 F         142.5175  138.5282  169.9265 F       1  UNL1       -0.1328
     22 F         140.8562  139.5484  169.0904 F       1  UNL1       -0.1328
     23 F         143.4725  140.3860  170.2959 F       1  UNL1       -0.1328
     24 C         143.8133  141.4827  158.2062 C.3     1  UNL1        0.1597
     25 C         145.1029  141.7552  157.4902 C.ar    1  UNL1        0.1592
     26 N         145.3992  141.0671  156.1907 N.ar    1  UNL1       -0.2274
     27 C         146.6888  141.3396  155.4748 C.ar    1  UNL1        0.1019
     28 C         147.6822  142.3001  156.0583 C.ar    1  UNL1        0.0413
     29 C         147.3859  142.9881  157.3579 C.ar    1  UNL1        0.1019
     30 N         146.0963  142.7157  158.0738 N.ar    1  UNL1       -0.2274
@<TRIPOS>BOND
     1     1     2    2
     2     2     3    1
     3     3     4   ar
     4     4     5   ar
     5     5    13    1
     6    13    14   ar
     7    14    15   ar
     8    15    16   ar
     9    16    19    1
    10    19    20    1
    11    20    21    1
    12    20    22    1
    13    20    23    1
    14    16    17   ar
    15    17    18   ar
    16     5     6   ar
    17     6     7   ar
    18     7     8   ar
    19     8     9    1
    20     9    10    1
    21    10    11    1
    22    11    12    1
    23    12    24    1
    24    24    25    1
    25    25    26   ar
    26    26    27   ar
    27    27    28   ar
    28    28    29   ar
    29    29    30   ar
    30    12     2   am
    31    30    25   ar
    32     8     3   ar
    33    18    13   ar
@<TRIPOS>MOLECULE
*****
 30 33 0 0 0
SMALL
GASTEIGER

@<TRIPOS>ATOM
      1 O         139.1904  143.5893  164.2373 O.2     1  UNL1       -0.2698
      2 C         140.6778  143.6684  164.4149 C.2     1  UNL1        0.2524
      3 C         141.2491  142.8132  165.5068 C.ar    1  UNL1        0.0875
      4 C         140.1773  142.0358  166.2117 C.ar    1  UNL1        0.0076
      5 C         140.5373  141.1157  167.3403 C.ar    1  UNL1        0.0003
      6 C         141.9691  140.9731  167.7641 C.ar    1  UNL1        0.0031
      7 C         143.0409  141.7505  167.0593 C.ar    1  UNL1        0.0370
      8 C         142.6809  142.6705  165.9306 C.ar    1  UNL1        0.1429
      9 O         143.8949  143.3479  165.3672 O.3     1  UNL1       -0.4735
     10 C         143.9771  144.3351  164.2408 C.3     1  UNL1        0.2268
     11 C         142.8653  144.8888  163.3997 C.3     1  UNL1        0.1414
     12 N         141.3970  144.5921  163.4771 N.am    1  UNL1       -0.2651
     13 C         139.4655  140.3383  168.0452 C.ar    1  UNL1        0.0002
     14 C         138.6021  139.3834  167.2752 C.ar    1  UNL1        0.0031
     15 C         137.5303  138.6060  167.9801 C.ar    1  UNL1        0.0372
     16 C         137.3219  138.7834  169.4549 C.ar    1  UNL1        0.1468
     17 C         138.1852  139.7382  170.2249 C.ar    1  UNL1        0.0372
     18 C         139.2571  140.5157  169.5200 C.ar    1  UNL1        0.0031
     19 O         136.2501  138.0059  170.1597 O.3     1  UNL1       -0.4045
     20 C         136.0728  138.1475  171.6425 C.3     1  UNL1        0.5753
     21 F         135.8955  138.2891  173.1252 F       1  UNL1       -0.1328
     22 F         135.5237  139.5293  171.4449 F       1  UNL1       -0.1328
     23 F         136.6219  136.7657  171.8401 F       1  UNL1       -0.1328
     24 C         140.5338  145.3147  162.4858 C.3     1  UNL1        0.1597
     25 C         140.4707  144.8440  161.0629 C.ar    1  UNL1        0.1592
     26 N         141.4592  145.3575  160.0585 N.ar    1  UNL1       -0.2274
     27 C         141.3960  144.8868  158.6357 C.ar    1  UNL1        0.1019
     28 C         140.3443  143.9025  158.2173 C.ar    1  UNL1        0.0413
     29 C         139.3557  143.3890  159.2218 C.ar    1  UNL1        0.1019
     30 N         139.4189  143.8597  160.6446 N.ar    1  UNL1       -0.2274
@<TRIPOS>BOND
     1     1     2    2
     2     2     3    1
     3     3     4   ar
     4     4     5   ar
     5     5    13    1
     6    13    14   ar
     7    14    15   ar
     8    15    16   ar
     9    16    19    1
    10    19    20    1
    11    20    21    1
    12    20    22    1
    13    20    23    1
    14    16    17   ar
    15    17    18   ar
    16     5     6   ar
    17     6     7   ar
    18     7     8   ar
    19     8     9    1
    20     9    10    1
    21    10    11    1
    22    11    12    1
    23    12    24    1
    24    24    25    1
    25    25    26   ar
    26    26    27   ar
    27    27    28   ar
    28    28    29   ar
    29    29    30   ar
    30    12     2   am
    31    30    25   ar
    32     8     3   ar
    33    18    13   ar
@<TRIPOS>MOLECULE
*****
 30 33 0 0 0
SMALL
GASTEIGER

@<TRIPOS>ATOM
      1 O         143.3948  141.2729  160.7609 O.2     1  UNL1       -0.2698
      2 C         142.8818  142.5015  160.0699 C.2     1  UNL1        0.2524
      3 C         142.1379  143.4732  160.9374 C.ar    1  UNL1        0.0875
      4 C         142.0627  142.9944  162.3569 C.ar    1  UNL1        0.0076
      5 C         141.3585  143.8217  163.3911 C.ar    1  UNL1        0.0003
      6 C         140.7296  145.1279  163.0058 C.ar    1  UNL1        0.0031
      7 C         140.8048  145.6066  161.5863 C.ar    1  UNL1        0.0370
      8 C         141.5089  144.7793  160.5521 C.ar    1  UNL1        0.1429
      9 O         141.4686  145.4363  159.2042 O.3     1  UNL1       -0.4735
     10 C         142.0472  144.9495  157.9087 C.3     1  UNL1        0.2268
     11 C         142.8091  143.6853  157.6412 C.3     1  UNL1        0.1414
     12 N         143.1805  142.5958  158.6030 N.am    1  UNL1       -0.2651
     13 C         141.2833  143.3430  164.8107 C.ar    1  UNL1        0.0002
     14 C         140.0123  143.5052  165.5905 C.ar    1  UNL1        0.0031
     15 C         139.9370  143.0265  167.0101 C.ar    1  UNL1        0.0372
     16 C         141.1328  142.3855  167.6499 C.ar    1  UNL1        0.1468
     17 C         142.4039  142.2233  166.8700 C.ar    1  UNL1        0.0372
     18 C         142.4791  142.7021  165.4504 C.ar    1  UNL1        0.0031
     19 O         141.0576  141.9068  169.0694 O.3     1  UNL1       -0.4045
     20 C         140.1659  142.6078  170.0510 C.3     1  UNL1        0.5753
     21 F         139.2743  143.3088  171.0327 F       1  UNL1       -0.1328
     22 F         141.0975  143.7834  170.0576 F       1  UNL1       -0.1328
     23 F         139.2344  141.4321  170.0444 F       1  UNL1       -0.1328
     24 C         143.9528  141.4492  158.0210 C.3     1  UNL1        0.1597
     25 C         145.2471  141.7026  157.3064 C.ar    1  UNL1        0.1592
     26 N         146.2441  142.6658  157.8792 N.ar    1  UNL1       -0.2274
     27 C         147.5383  142.9190  157.1646 C.ar    1  UNL1        0.1019
     28 C         147.8356  142.2092  155.8770 C.ar    1  UNL1        0.0413
     29 C         146.8385  141.2460  155.3042 C.ar    1  UNL1        0.1019
     30 N         145.5443  140.9926  156.0188 N.ar    1  UNL1       -0.2274
@<TRIPOS>BOND
     1     1     2    2
     2     2     3    1
     3     3     4   ar
     4     4     5   ar
     5     5    13    1
     6    13    14   ar
     7    14    15   ar
     8    15    16   ar
     9    16    19    1
    10    19    20    1
    11    20    21    1
    12    20    22    1
    13    20    23    1
    14    16    17   ar
    15    17    18   ar
    16     5     6   ar
    17     6     7   ar
    18     7     8   ar
    19     8     9    1
    20     9    10    1
    21    10    11    1
    22    11    12    1
    23    12    24    1
    24    24    25    1
    25    25    26   ar
    26    26    27   ar
    27    27    28   ar
    28    28    29   ar
    29    29    30   ar
    30    12     2   am
    31    30    25   ar
    32     8     3   ar
    33    18    13   ar
@<TRIPOS>MOLECULE
*****
 30 33 0 0 0
SMALL
GASTEIGER

@<TRIPOS>ATOM
      1 O         141.8751  139.9382  161.0034 O.2     1  UNL1       -0.2698
      2 C         140.9409  140.9001  160.3310 C.2     1  UNL1        0.2524
      3 C         139.8910  141.5106  161.2114 C.ar    1  UNL1        0.0875
      4 C         140.0020  141.0135  162.6223 C.ar    1  UNL1        0.0076
      5 C         139.0430  141.5019  163.6671 C.ar    1  UNL1        0.0003
      6 C         137.9731  142.4874  163.3012 C.ar    1  UNL1        0.0031
      7 C         137.8621  142.9845  161.8903 C.ar    1  UNL1        0.0370
      8 C         138.8210  142.4961  160.8454 C.ar    1  UNL1        0.1429
      9 O         138.5367  143.1145  159.5087 O.3     1  UNL1       -0.4735
     10 C         139.2521  142.9001  158.2078 C.3     1  UNL1        0.2268
     11 C         140.4285  142.0144  157.9224 C.3     1  UNL1        0.1414
     12 N         141.1801  141.1242  158.8673 N.am    1  UNL1       -0.2651
     13 C         139.1540  141.0048  165.0781 C.ar    1  UNL1        0.0002
     14 C         138.3606  139.8098  165.5168 C.ar    1  UNL1        0.0031
     15 C         138.4715  139.3127  166.9276 C.ar    1  UNL1        0.0372
     16 C         139.3759  140.0106  167.8998 C.ar    1  UNL1        0.1468
     17 C         140.1693  141.2056  167.4611 C.ar    1  UNL1        0.0372
     18 C         140.0583  141.7027  166.0502 C.ar    1  UNL1        0.0031
     19 O         139.4868  139.5135  169.3107 O.3     1  UNL1       -0.4045
     20 C         140.0230  140.4145  170.3834 C.3     1  UNL1        0.5753
     21 F         140.5592  141.3155  171.4561 F       1  UNL1       -0.1328
     22 F         141.2552  139.5648  170.4812 F       1  UNL1       -0.1328
     23 F         138.7908  141.2643  170.2856 F       1  UNL1       -0.1328
     24 C         142.3219  140.3569  158.2695 C.3     1  UNL1        0.1597
     25 C         142.0775  139.0170  157.6409 C.ar    1  UNL1        0.1592
     26 N         140.6944  138.6343  157.2044 N.ar    1  UNL1       -0.2274
     27 C         140.4502  137.2945  156.5759 C.ar    1  UNL1        0.1019
     28 C         141.5889  136.3372  156.3840 C.ar    1  UNL1        0.0413
     29 C         142.9720  136.7199  156.8206 C.ar    1  UNL1        0.1019
     30 N         143.2164  138.0597  157.4491 N.ar    1  UNL1       -0.2274
@<TRIPOS>BOND
     1     1     2    2
     2     2     3    1
     3     3     4   ar
     4     4     5   ar
     5     5    13    1
     6    13    14   ar
     7    14    15   ar
     8    15    16   ar
     9    16    19    1
    10    19    20    1
    11    20    21    1
    12    20    22    1
    13    20    23    1
    14    16    17   ar
    15    17    18   ar
    16     5     6   ar
    17     6     7   ar
    18     7     8   ar
    19     8     9    1
    20     9    10    1
    21    10    11    1
    22    11    12    1
    23    12    24    1
    24    24    25    1
    25    25    26   ar
    26    26    27   ar
    27    27    28   ar
    28    28    29   ar
    29    29    30   ar
    30    12     2   am
    31    30    25   ar
    32     8     3   ar
    33    18    13   ar
@<TRIPOS>MOLECULE
*****
 30 33 0 0 0
SMALL
GASTEIGER

@<TRIPOS>ATOM
      1 O         142.1954  138.1678  160.9251 O.2     1  UNL1       -0.2698
      2 C         141.0694  138.6215  160.0441 C.2     1  UNL1        0.2524
      3 C         139.8836  139.2061  160.7528 C.ar    1  UNL1        0.0875
      4 C         140.0822  139.2130  162.2395 C.ar    1  UNL1        0.0076
      5 C         139.0109  139.7581  163.1367 C.ar    1  UNL1        0.0003
      6 C         137.7408  140.2961  162.5472 C.ar    1  UNL1        0.0031
      7 C         137.5422  140.2891  161.0605 C.ar    1  UNL1        0.0370
      8 C         138.6135  139.7441  160.1633 C.ar    1  UNL1        0.1429
      9 O         138.2157  139.8304  158.7195 O.3     1  UNL1       -0.4735
     10 C         138.9894  139.4000  157.5088 C.3     1  UNL1        0.2268
     11 C         140.3524  138.7770  157.4427 C.3     1  UNL1        0.1414
     12 N         141.2781  138.4304  158.5711 N.am    1  UNL1       -0.2651
     13 C         139.2095  139.7650  164.6236 C.ar    1  UNL1        0.0002
     14 C         140.4214  140.4218  165.2152 C.ar    1  UNL1        0.0031
     15 C         140.6200  140.4288  166.7020 C.ar    1  UNL1        0.0372
     16 C         139.6068  139.7790  167.5971 C.ar    1  UNL1        0.1468
     17 C         138.3949  139.1223  167.0055 C.ar    1  UNL1        0.0372
     18 C         138.1963  139.1153  165.5186 C.ar    1  UNL1        0.0031
     19 O         139.8055  139.7861  169.0839 O.3     1  UNL1       -0.4045
     20 C         139.4719  141.0132  169.8793 C.3     1  UNL1        0.5753
     21 F         139.1383  142.2404  170.6748 F       1  UNL1       -0.1328
     22 F         138.0812  140.4947  170.0961 F       1  UNL1       -0.1328
     23 F         140.8626  141.5318  169.6626 F       1  UNL1       -0.1328
     24 C         142.5851  137.8111  158.1738 C.3     1  UNL1        0.1597
     25 C         143.5320  138.5627  157.2857 C.ar    1  UNL1        0.1592
     26 N         143.9672  137.9678  155.9793 N.ar    1  UNL1       -0.2274
     27 C         144.9140  138.7194  155.0914 C.ar    1  UNL1        0.1019
     28 C         145.4257  140.0659  155.5097 C.ar    1  UNL1        0.0413
     29 C         144.9905  140.6608  156.8162 C.ar    1  UNL1        0.1019
     30 N         144.0437  139.9093  157.7042 N.ar    1  UNL1       -0.2274
@<TRIPOS>BOND
     1     1     2    2
     2     2     3    1
     3     3     4   ar
     4     4     5   ar
     5     5    13    1
     6    13    14   ar
     7    14    15   ar
     8    15    16   ar
     9    16    19    1
    10    19    20    1
    11    20    21    1
    12    20    22    1
    13    20    23    1
    14    16    17   ar
    15    17    18   ar
    16     5     6   ar
    17     6     7   ar
    18     7     8   ar
    19     8     9    1
    20     9    10    1
    21    10    11    1
    22    11    12    1
    23    12    24    1
    24    24    25    1
    25    25    26   ar
    26    26    27   ar
    27    27    28   ar
    28    28    29   ar
    29    29    30   ar
    30    12     2   am
    31    30    25   ar
    32     8     3   ar
    33    18    13   ar
@<TRIPOS>MOLECULE
*****
 30 33 0 0 0
SMALL
GASTEIGER

@<TRIPOS>ATOM
      1 O         138.2729  141.7978  161.1785 O.2     1  UNL1       -0.2698
      2 C         139.1175  140.7894  160.4576 C.2     1  UNL1        0.2524
      3 C         139.7986  139.7721  161.3244 C.ar    1  UNL1        0.0875
      4 C         139.4802  139.9864  162.7744 C.ar    1  UNL1        0.0076
      5 C         140.0628  139.0743  163.8129 C.ar    1  UNL1        0.0003
      6 C         140.9639  137.9479  163.4014 C.ar    1  UNL1        0.0031
      7 C         141.2823  137.7337  161.9513 C.ar    1  UNL1        0.0370
      8 C         140.6997  138.6458  160.9128 C.ar    1  UNL1        0.1429
      9 O         141.1422  138.2585  159.5329 O.3     1  UNL1       -0.4735
     10 C         140.7930  138.9019  158.2236 C.3     1  UNL1        0.2268
     11 C         139.9149  140.0916  157.9711 C.3     1  UNL1        0.1414
     12 N         139.1692  140.9316  158.9652 N.am    1  UNL1       -0.2651
     13 C         139.7444  139.2885  165.2630 C.ar    1  UNL1        0.0002
     14 C         138.4521  138.7803  165.8302 C.ar    1  UNL1        0.0031
     15 C         138.1337  138.9944  167.2802 C.ar    1  UNL1        0.0372
     16 C         139.1076  139.7169  168.1632 C.ar    1  UNL1        0.1468
     17 C         140.3999  140.2252  167.5961 C.ar    1  UNL1        0.0372
     18 C         140.7183  140.0109  166.1460 C.ar    1  UNL1        0.0031
     19 O         138.7892  139.9311  169.6133 O.3     1  UNL1       -0.4045
     20 C         139.7806  140.6173  170.5055 C.3     1  UNL1        0.5753
     21 F         140.7721  141.3036  171.3977 F       1  UNL1       -0.1328
     22 F         139.0515  141.9147  170.3179 F       1  UNL1       -0.1328
     23 F         140.5098  139.3200  170.6930 F       1  UNL1       -0.1328
     24 C         138.3696  142.0634  158.3912 C.3     1  UNL1        0.1597
     25 C         139.0394  143.3655  158.0658 C.ar    1  UNL1        0.1592
     26 N         139.6540  144.1869  159.1602 N.ar    1  UNL1       -0.2274
     27 C         140.3238  145.4889  158.8347 C.ar    1  UNL1        0.1019
     28 C         140.3790  145.9698  157.4149 C.ar    1  UNL1        0.0413
     29 C         139.7643  145.1484  156.3206 C.ar    1  UNL1        0.1019
     30 N         139.0945  143.8463  156.6460 N.ar    1  UNL1       -0.2274
@<TRIPOS>BOND
     1     1     2    2
     2     2     3    1
     3     3     4   ar
     4     4     5   ar
     5     5    13    1
     6    13    14   ar
     7    14    15   ar
     8    15    16   ar
     9    16    19    1
    10    19    20    1
    11    20    21    1
    12    20    22    1
    13    20    23    1
    14    16    17   ar
    15    17    18   ar
    16     5     6   ar
    17     6     7   ar
    18     7     8   ar
    19     8     9    1
    20     9    10    1
    21    10    11    1
    22    11    12    1
    23    12    24    1
    24    24    25    1
    25    25    26   ar
    26    26    27   ar
    27    27    28   ar
    28    28    29   ar
    29    29    30   ar
    30    12     2   am
    31    30    25   ar
    32     8     3   ar
    33    18    13   ar
@<TRIPOS>MOLECULE
*****
 30 33 0 0 0
SMALL
GASTEIGER

@<TRIPOS>ATOM
      1 O         142.9661  139.8231  162.1216 O.2     1  UNL1       -0.2698
      2 C         141.7059  139.5860  161.3433 C.2     1  UNL1        0.2524
      3 C         140.4261  139.8101  162.0931 C.ar    1  UNL1        0.0875
      4 C         140.6869  140.2373  163.5071 C.ar    1  UNL1        0.0076
      5 C         139.5381  140.5141  164.4309 C.ar    1  UNL1        0.0003
      6 C         138.1284  140.3637  163.9407 C.ar    1  UNL1        0.0031
      7 C         137.8676  139.9365  162.5267 C.ar    1  UNL1        0.0370
      8 C         139.0165  139.6597  161.6029 C.ar    1  UNL1        0.1429
      9 O         138.5385  139.2481  160.2419 O.3     1  UNL1       -0.4735
     10 C         139.3519  138.8853  159.0350 C.3     1  UNL1        0.2268
     11 C         140.8445  138.8444  158.8911 C.3     1  UNL1        0.1414
     12 N         141.8921  139.1563  159.9183 N.am    1  UNL1       -0.2651
     13 C         139.7989  140.9413  165.8450 C.ar    1  UNL1        0.0002
     14 C         140.3357  142.3133  166.1270 C.ar    1  UNL1        0.0031
     15 C         140.5965  142.7405  167.5410 C.ar    1  UNL1        0.0372
     16 C         140.3204  141.7958  168.6730 C.ar    1  UNL1        0.1468
     17 C         139.7836  140.4239  168.3910 C.ar    1  UNL1        0.0372
     18 C         139.5228  139.9966  166.9769 C.ar    1  UNL1        0.0031
     19 O         140.5812  142.2231  170.0870 O.3     1  UNL1       -0.4045
     20 C         141.8706  142.9038  170.4391 C.3     1  UNL1        0.5753
     21 F         143.1600  143.5846  170.7912 F       1  UNL1       -0.1328
     22 F         141.2428  144.2372  170.1601 F       1  UNL1       -0.1328
     23 F         142.4984  141.5704  170.7182 F       1  UNL1       -0.1328
     24 C         143.3139  139.0204  159.4600 C.3     1  UNL1        0.1597
     25 C         143.9393  140.0989  158.6258 C.ar    1  UNL1        0.1592
     26 N         144.5225  139.7664  157.2845 N.ar    1  UNL1       -0.2274
     27 C         145.1478  140.8448  156.4504 C.ar    1  UNL1        0.1019
     28 C         145.1900  142.2559  156.9575 C.ar    1  UNL1        0.0413
     29 C         144.6068  142.5883  158.2989 C.ar    1  UNL1        0.1019
     30 N         143.9814  141.5099  159.1331 N.ar    1  UNL1       -0.2274
@<TRIPOS>BOND
     1     1     2    2
     2     2     3    1
     3     3     4   ar
     4     4     5   ar
     5     5    13    1
     6    13    14   ar
     7    14    15   ar
     8    15    16   ar
     9    16    19    1
    10    19    20    1
    11    20    21    1
    12    20    22    1
    13    20    23    1
    14    16    17   ar
    15    17    18   ar
    16     5     6   ar
    17     6     7   ar
    18     7     8   ar
    19     8     9    1
    20     9    10    1
    21    10    11    1
    22    11    12    1
    23    12    24    1
    24    24    25    1
    25    25    26   ar
    26    26    27   ar
    27    27    28   ar
    28    28    29   ar
    29    29    30   ar
    30    12     2   am
    31    30    25   ar
    32     8     3   ar
    33    18    13   ar
@<TRIPOS>MOLECULE
*****
 30 33 0 0 0
SMALL
GASTEIGER

@<TRIPOS>ATOM
      1 O         142.6474  139.1230  162.4012 O.2     1  UNL1       -0.2698
      2 C         143.0848  140.2704  161.5396 C.2     1  UNL1        0.2524
      3 C         143.1251  141.6107  162.2119 C.ar    1  UNL1        0.0875
      4 C         142.7060  141.5158  163.6490 C.ar    1  UNL1        0.0076
      5 C         142.6764  142.7475  164.5045 C.ar    1  UNL1        0.0003
      6 C         143.0659  144.0742  163.9229 C.ar    1  UNL1        0.0031
      7 C         143.4850  144.1691  162.4858 C.ar    1  UNL1        0.0370
      8 C         143.5146  142.9374  161.6303 C.ar    1  UNL1        0.1429
      9 O         143.9600  143.2513  160.2327 O.3     1  UNL1       -0.4735
     10 C         144.1259  142.3162  159.0717 C.3     1  UNL1        0.2268
     11 C         143.8874  140.8361  159.0214 C.3     1  UNL1        0.1414
     12 N         143.4241  139.9256  160.1198 N.am    1  UNL1       -0.2651
     13 C         142.2572  142.6527  165.9417 C.ar    1  UNL1        0.0002
     14 C         140.8161  142.8340  166.3161 C.ar    1  UNL1        0.0031
     15 C         140.3969  142.7391  167.7532 C.ar    1  UNL1        0.0372
     16 C         141.4189  142.4630  168.8159 C.ar    1  UNL1        0.1468
     17 C         142.8601  142.2817  168.4415 C.ar    1  UNL1        0.0372
     18 C         143.2792  142.3765  167.0043 C.ar    1  UNL1        0.0031
     19 O         140.9998  142.3681  170.2530 O.3     1  UNL1       -0.4045
     20 C         140.4937  141.0673  170.8024 C.3     1  UNL1        0.5753
     21 F         139.9876  139.7666  171.3517 F       1  UNL1       -0.1328
     22 F         139.1144  141.3978  170.3141 F       1  UNL1       -0.1328
     23 F         141.8730  140.7369  171.2906 F       1  UNL1       -0.1328
     24 C         143.2811  138.4792  159.7492 C.3     1  UNL1        0.1597
     25 C         142.3912  138.0815  158.6090 C.ar    1  UNL1        0.1592
     26 N         140.9378  138.4520  158.6274 N.ar    1  UNL1       -0.2274
     27 C         140.0480  138.0543  157.4873 C.ar    1  UNL1        0.1019
     28 C         140.6115  137.2861  156.3287 C.ar    1  UNL1        0.0413
     29 C         142.0649  136.9156  156.3104 C.ar    1  UNL1        0.1019
     30 N         142.9548  137.3132  157.4505 N.ar    1  UNL1       -0.2274
@<TRIPOS>BOND
     1     1     2    2
     2     2     3    1
     3     3     4   ar
     4     4     5   ar
     5     5    13    1
     6    13    14   ar
     7    14    15   ar
     8    15    16   ar
     9    16    19    1
    10    19    20    1
    11    20    21    1
    12    20    22    1
    13    20    23    1
    14    16    17   ar
    15    17    18   ar
    16     5     6   ar
    17     6     7   ar
    18     7     8   ar
    19     8     9    1
    20     9    10    1
    21    10    11    1
    22    11    12    1
    23    12    24    1
    24    24    25    1
    25    25    26   ar
    26    26    27   ar
    27    27    28   ar
    28    28    29   ar
    29    29    30   ar
    30    12     2   am
    31    30    25   ar
    32     8     3   ar
    33    18    13   ar
@<TRIPOS>MOLECULE
*****
 30 33 0 0 0
SMALL
GASTEIGER

@<TRIPOS>ATOM
      1 O         139.2259  140.8170  160.2083 O.2     1  UNL1       -0.2698
      2 C         139.5640  142.2575  159.9619 C.2     1  UNL1        0.2524
      3 C         139.8379  143.0803  161.1859 C.ar    1  UNL1        0.0875
      4 C         139.7115  142.2614  162.4363 C.ar    1  UNL1        0.0076
      5 C         139.9461  142.8958  163.7751 C.ar    1  UNL1        0.0003
      6 C         140.3070  144.3490  163.8636 C.ar    1  UNL1        0.0031
      7 C         140.4334  145.1679  162.6132 C.ar    1  UNL1        0.0370
      8 C         140.1988  144.5335  161.2744 C.ar    1  UNL1        0.1429
      9 O         140.3751  145.5228  160.1607 O.3     1  UNL1       -0.4735
     10 C         140.2339  145.3034  158.6836 C.3     1  UNL1        0.2268
     11 C         139.8815  144.0403  157.9553 C.3     1  UNL1        0.1414
     12 N         139.5834  142.6847  158.5242 N.am    1  UNL1       -0.2651
     13 C         139.8197  142.0769  165.0255 C.ar    1  UNL1        0.0002
     14 C         140.4541  142.5506  166.2995 C.ar    1  UNL1        0.0031
     15 C         140.3277  141.7318  167.5499 C.ar    1  UNL1        0.0372
     16 C         139.5669  140.4392  167.5264 C.ar    1  UNL1        0.1468
     17 C         138.9325  139.9655  166.2524 C.ar    1  UNL1        0.0372
     18 C         139.0589  140.7844  165.0019 C.ar    1  UNL1        0.0031
     19 O         139.4405  139.6204  168.7768 O.3     1  UNL1       -0.4045
     20 C         139.9416  140.1629  170.0824 C.3     1  UNL1        0.5753
     21 F         140.4427  140.7054  171.3880 F       1  UNL1       -0.1328
     22 F         141.2083  139.3753  169.9235 F       1  UNL1       -0.1328
     23 F         138.6750  140.9506  170.2412 F       1  UNL1       -0.1328
     24 C         139.2622  141.6150  157.5230 C.3     1  UNL1        0.1597
     25 C         137.9668  141.6589  156.7680 C.ar    1  UNL1        0.1592
     26 N         137.7729  142.6609  155.6687 N.ar    1  UNL1       -0.2274
     27 C         136.4775  142.7048  154.9139 C.ar    1  UNL1        0.1019
     28 C         135.3759  141.7467  155.2581 C.ar    1  UNL1        0.0413
     29 C         135.5699  140.7446  156.3573 C.ar    1  UNL1        0.1019
     30 N         136.8652  140.7007  157.1123 N.ar    1  UNL1       -0.2274
@<TRIPOS>BOND
     1     1     2    2
     2     2     3    1
     3     3     4   ar
     4     4     5   ar
     5     5    13    1
     6    13    14   ar
     7    14    15   ar
     8    15    16   ar
     9    16    19    1
    10    19    20    1
    11    20    21    1
    12    20    22    1
    13    20    23    1
    14    16    17   ar
    15    17    18   ar
    16     5     6   ar
    17     6     7   ar
    18     7     8   ar
    19     8     9    1
    20     9    10    1
    21    10    11    1
    22    11    12    1
    23    12    24    1
    24    24    25    1
    25    25    26   ar
    26    26    27   ar
    27    27    28   ar
    28    28    29   ar
    29    29    30   ar
    30    12     2   am
    31    30    25   ar
    32     8     3   ar
    33    18    13   ar
