@<TRIPOS>MOLECULE
*****
 61 66 0 0 0
SMALL
GASTEIGER

@<TRIPOS>ATOM
      1 C         139.9716  143.6003  157.5011 C.3     1  UNL1        0.2066
      2 O         139.8509  144.5769  158.6332 O.3     1  UNL1       -0.4483
      3 C         140.0164  145.0248  160.0552 C.2     1  UNL1        0.3235
      4 O         139.4470  146.4124  160.0366 O.2     1  UNL1       -0.2496
      5 C         140.4353  144.8550  161.4854 C.3     1  UNL1        0.1563
      6 C         140.0524  146.1670  162.1034 C.3     1  UNL1        0.0196
      7 C         141.0247  144.1014  162.6408 C.2     1  UNL1        0.1629
      8 O         140.9040  145.0780  163.7728 O.2     1  UNL1       -0.2954
      9 C         141.6677  142.9131  163.2922 C.3     1  UNL1        0.0877
     10 C         141.8332  143.3609  164.7142 C.3     1  UNL1        0.0104
     11 C         142.2372  141.5255  163.3108 C.3     1  UNL1        0.1490
     12 C         142.6202  140.2134  162.6929 C.3     1  UNL1        0.1141
     13 C         142.9615  140.2520  164.1530 C.3     1  UNL1        0.0318
     14 O         143.2526  138.9295  163.1419 O.3     1  UNL1       -0.3843
     15 C         142.7408  139.2367  161.5608 C.3     1  UNL1        0.0367
     16 C         142.5753  138.7889  160.1389 C.3     1  UNL1        0.0601
     17 C         143.1448  137.4013  160.1575 C.3     1  UNL1        0.0078
     18 C         142.1564  138.9587  158.7086 C.2     1  UNL1        0.1516
     19 O         142.5394  137.6466  158.0906 O.2     1  UNL1       -0.2960
     20 C         141.5671  139.7123  157.5533 C.3     1  UNL1        0.0794
     21 C         141.6878  138.7356  156.4213 C.3     1  UNL1        0.0096
     22 C         140.9240  140.9006  156.9018 C.3     1  UNL1        0.1254
     23 N         140.8149  140.3362  155.5164 N.am    1  UNL1       -0.2426
     24 C         140.1781  141.3749  154.6415 C.2     1  UNL1        0.4049
     25 O         139.8783  141.2323  153.1786 O.2     1  UNL1       -0.2262
     26 O         139.8936  142.5813  155.4862 O.3     1  UNL1       -0.4365
     27 C         140.3546  142.2882  156.8832 C.3     1  UNL1        0.1908
     28 C         139.7132  143.5081  156.2911 C.3     1  UNL1        0.0493
     29 H         143.4612  138.9852  164.0875 H       1  UNL1        0.2103
     30 C         141.2638  138.9724  155.0821 C.3     1  UNL1        0.1105
     31 C         142.4733  138.4268  154.3825 C.3     1  UNL1        0.0939
     32 N         141.8987  137.0438  154.4679 N.3     1  UNL1       -0.2659
     33 C         140.6893  137.5895  155.1674 C.3     1  UNL1        0.0939
     34 C         142.3478  135.6800  154.0335 C.3     1  UNL1        0.1024
     35 C         142.6964  134.6430  155.0596 C.ar    1  UNL1        0.0321
     36 C         143.5971  134.9955  156.2062 C.ar    1  UNL1        0.1501
     37 O         144.1491  136.3849  156.3265 O.3     1  UNL1       -0.5042
     38 C         143.9457  133.9584  157.2323 C.ar    1  UNL1        0.1368
     39 N         143.3937  132.5689  157.1119 N.ar    1  UNL1       -0.2219
     40 C         142.4930  132.2165  155.9654 C.ar    1  UNL1        0.1622
     41 N         141.9409  130.8269  155.8451 N.ar    1  UNL1       -0.2251
     42 C         141.0402  130.4745  154.6985 C.ar    1  UNL1        0.1006
     43 C         140.6916  131.5116  153.6724 C.ar    1  UNL1        0.0208
     44 C         141.2436  132.9010  153.7927 C.ar    1  UNL1        0.0045
     45 C         142.1443  133.2536  154.9393 C.ar    1  UNL1        0.0361
     46 H         143.9314  137.0327  155.6855 H       1  UNL1        0.2922
     47 C         139.7534  145.7894  156.1192 C.3     1  UNL1        0.0040
     48 C         139.3823  144.3539  156.3459 C.3     1  UNL1        0.0474
     49 O         142.6561  141.3557  164.7411 O.3     1  UNL1       -0.3283
     50 C         141.6808  140.8268  165.7505 C.3     1  UNL1        0.2643
     51 O         140.4659  140.0734  165.2964 O.3     1  UNL1       -0.3311
     52 C         139.4905  139.5444  166.3059 C.3     1  UNL1        0.1194
     53 C         138.2756  138.7910  165.8518 C.3     1  UNL1        0.0322
     54 C         139.7302  139.7688  167.7695 C.3     1  UNL1        0.0482
     55 C         140.9452  140.5222  168.2237 C.3     1  UNL1        0.0921
     56 C         141.9205  141.0512  167.2142 C.3     1  UNL1        0.1815
     57 O         143.1355  141.8046  167.6684 O.3     1  UNL1       -0.3783
     58 H         143.1384  141.8598  168.6368 H       1  UNL1        0.2106
     59 N         141.1848  140.7466  169.6873 N.3     1  UNL1       -0.2692
     60 C         140.4353  141.8240  170.4135 C.3     1  UNL1        0.0897
     61 C         142.1741  139.8936  170.4247 C.3     1  UNL1        0.0897
@<TRIPOS>BOND
     1    47    48    1
     2     1    48    1
     3     1     2    1
     4     2     3    1
     5     3     4    2
     6     3     5    1
     7     5     6    1
     8     5     7    1
     9     7     8    2
    10     7     9    1
    11     9    10    1
    12     9    11    1
    13    11    49    1
    14    50    49    1
    15    50    51    1
    16    51    52    1
    17    52    53    1
    18    52    54    1
    19    54    55    1
    20    55    59    1
    21    59    60    1
    22    59    61    1
    23    55    56    1
    24    56    57    1
    25    11    12    1
    26    12    13    1
    27    12    14    1
    28    12    15    1
    29    15    16    1
    30    16    17    1
    31    16    18    1
    32    18    19    2
    33    18    20    1
    34    20    21    1
    35    20    22    1
    36    22    23    1
    37    23    30    1
    38    30    31    1
    39    31    32    1
    40    32    34    1
    41    34    35    1
    42    35    36   ar
    43    36    37    1
    44    36    38   ar
    45    38    39   ar
    46    39    40   ar
    47    40    41   ar
    48    41    42   ar
    49    42    43   ar
    50    43    44   ar
    51    44    45   ar
    52    32    33    1
    53    23    24   am
    54    24    25    2
    55    24    26    1
    56    26    27    1
    57    27    28    1
    58    27     1    1
    59    56    50    1
    60    27    22    1
    61    33    30    1
    62    45    35   ar
    63    45    40   ar
    64    57    58    1
    65    14    29    1
    66    37    46    1
@<TRIPOS>MOLECULE
*****
 61 66 0 0 0
SMALL
GASTEIGER

@<TRIPOS>ATOM
      1 C         140.5497  142.9226  157.3880 C.3     1  UNL1        0.2066
      2 O         140.2135  144.0519  158.3164 O.3     1  UNL1       -0.4483
      3 C         140.1747  144.7405  159.6484 C.2     1  UNL1        0.3235
      4 O         139.4892  146.0371  159.3340 O.2     1  UNL1       -0.2496
      5 C         140.4411  144.8521  161.1203 C.3     1  UNL1        0.1563
      6 C         139.8741  146.1983  161.4610 C.3     1  UNL1        0.0196
      7 C         140.9597  144.3646  162.4406 C.2     1  UNL1        0.1629
      8 O         140.6236  145.4939  163.3689 O.2     1  UNL1       -0.2954
      9 C         141.6281  143.3744  163.3478 C.3     1  UNL1        0.0877
     10 C         141.5893  144.0631  164.6798 C.3     1  UNL1        0.0104
     11 C         142.3136  142.0778  163.6622 C.3     1  UNL1        0.1490
     12 C         142.8807  140.7316  163.3216 C.3     1  UNL1        0.1141
     13 C         143.0483  141.0440  164.7791 C.3     1  UNL1        0.0318
     14 O         143.5702  139.6136  164.0458 O.3     1  UNL1       -0.3843
     15 C         143.2168  139.6023  162.3933 C.3     1  UNL1        0.0367
     16 C         143.2556  138.9136  161.0613 C.3     1  UNL1        0.0601
     17 C         143.9412  137.6171  161.3757 C.3     1  UNL1        0.0078
     18 C         142.9893  138.8021  159.5894 C.2     1  UNL1        0.1516
     19 O         143.5563  137.4558  159.2486 O.2     1  UNL1       -0.2960
     20 C         142.4706  139.2896  158.2690 C.3     1  UNL1        0.0794
     21 C         142.8068  138.1603  157.3408 C.3     1  UNL1        0.0096
     22 C         141.8023  140.2797  157.3618 C.3     1  UNL1        0.1254
     23 N         141.9031  139.4887  156.0913 N.am    1  UNL1       -0.2426
     24 C         141.2799  140.2964  154.9917 C.2     1  UNL1        0.4049
     25 O         141.1632  139.8860  153.5536 O.2     1  UNL1       -0.2262
     26 O         140.7939  141.5866  155.5826 O.3     1  UNL1       -0.4365
     27 C         141.1167  141.5763  157.0474 C.3     1  UNL1        0.1908
     28 C         140.4404  142.6073  156.1931 C.3     1  UNL1        0.0493
     29 H         143.6636  139.8447  164.9833 H       1  UNL1        0.2103
     30 C         142.5190  138.1288  155.9460 C.3     1  UNL1        0.1105
     31 C         143.7626  137.5909  155.3024 C.3     1  UNL1        0.0939
     32 N         143.3901  136.2055  155.7404 N.3     1  UNL1       -0.2659
     33 C         142.1465  136.7434  156.3840 C.3     1  UNL1        0.0939
     34 C         144.0062  134.8456  155.5950 C.3     1  UNL1        0.1024
     35 C         143.1416  133.6598  155.2845 C.ar    1  UNL1        0.0321
     36 C         142.0941  133.7550  154.2151 C.ar    1  UNL1        0.1501
     37 O         141.9111  135.0358  153.4563 O.3     1  UNL1       -0.5042
     38 C         141.2295  132.5692  153.9045 C.ar    1  UNL1        0.1368
     39 N         141.4125  131.2883  154.6634 N.ar    1  UNL1       -0.2219
     40 C         142.4600  131.1932  155.7328 C.ar    1  UNL1        0.1622
     41 N         142.6429  129.9122  156.4916 N.ar    1  UNL1       -0.2251
     42 C         143.6904  129.8171  157.5610 C.ar    1  UNL1        0.1006
     43 C         144.5551  131.0030  157.8716 C.ar    1  UNL1        0.0208
     44 C         144.3721  132.2838  157.1128 C.ar    1  UNL1        0.0045
     45 C         143.3246  132.3790  156.0433 C.ar    1  UNL1        0.0361
     46 H         142.4512  135.7765  153.6503 H       1  UNL1        0.2922
     47 C         138.6446  143.9739  155.9685 C.3     1  UNL1        0.0040
     48 C         140.0310  143.4101  156.0678 C.3     1  UNL1        0.0474
     49 O         142.5800  142.1894  165.1342 O.3     1  UNL1       -0.3283
     50 C         141.6881  141.4853  166.1132 C.3     1  UNL1        0.2643
     51 O         140.4634  140.7667  165.6298 O.3     1  UNL1       -0.3311
     52 C         139.5714  140.0625  166.6089 C.3     1  UNL1        0.1194
     53 C         138.3468  139.3439  166.1255 C.3     1  UNL1        0.0322
     54 C         139.9041  140.0770  168.0715 C.3     1  UNL1        0.0482
     55 C         141.1288  140.7956  168.5550 C.3     1  UNL1        0.0921
     56 C         142.0208  141.4998  167.5758 C.3     1  UNL1        0.1815
     57 O         143.2455  142.2185  168.0593 O.3     1  UNL1       -0.3783
     58 H         143.3126  142.1306  169.0230 H       1  UNL1        0.2106
     59 N         141.4616  140.8101  170.0175 N.3     1  UNL1       -0.2692
     60 C         140.7278  141.7333  170.9445 C.3     1  UNL1        0.0897
     61 C         142.5280  139.9014  170.5530 C.3     1  UNL1        0.0897
@<TRIPOS>BOND
     1    47    48    1
     2     1    48    1
     3     1     2    1
     4     2     3    1
     5     3     4    2
     6     3     5    1
     7     5     6    1
     8     5     7    1
     9     7     8    2
    10     7     9    1
    11     9    10    1
    12     9    11    1
    13    11    49    1
    14    50    49    1
    15    50    51    1
    16    51    52    1
    17    52    53    1
    18    52    54    1
    19    54    55    1
    20    55    59    1
    21    59    60    1
    22    59    61    1
    23    55    56    1
    24    56    57    1
    25    11    12    1
    26    12    13    1
    27    12    14    1
    28    12    15    1
    29    15    16    1
    30    16    17    1
    31    16    18    1
    32    18    19    2
    33    18    20    1
    34    20    21    1
    35    20    22    1
    36    22    23    1
    37    23    30    1
    38    30    31    1
    39    31    32    1
    40    32    34    1
    41    34    35    1
    42    35    36   ar
    43    36    37    1
    44    36    38   ar
    45    38    39   ar
    46    39    40   ar
    47    40    41   ar
    48    41    42   ar
    49    42    43   ar
    50    43    44   ar
    51    44    45   ar
    52    32    33    1
    53    23    24   am
    54    24    25    2
    55    24    26    1
    56    26    27    1
    57    27    28    1
    58    27     1    1
    59    56    50    1
    60    27    22    1
    61    33    30    1
    62    45    35   ar
    63    45    40   ar
    64    57    58    1
    65    14    29    1
    66    37    46    1
@<TRIPOS>MOLECULE
*****
 61 66 0 0 0
SMALL
GASTEIGER

@<TRIPOS>ATOM
      1 C         140.8480  144.8191  157.4731 C.3     1  UNL1        0.2066
      2 O         141.2876  144.7135  156.0429 O.3     1  UNL1       -0.4483
      3 C         141.8478  143.9960  154.8506 C.2     1  UNL1        0.3235
      4 O         141.8261  145.0516  153.7852 O.2     1  UNL1       -0.2496
      5 C         142.4176  142.8087  154.1326 C.3     1  UNL1        0.1563
      6 C         142.6495  143.3359  152.7476 C.3     1  UNL1        0.0196
      7 C         142.8843  141.3868  154.0309 C.2     1  UNL1        0.1629
      8 O         143.3239  141.2812  152.6007 O.2     1  UNL1       -0.2954
      9 C         143.1554  140.0118  154.5659 C.3     1  UNL1        0.0877
     10 C         143.7156  139.2944  153.3736 C.3     1  UNL1        0.0104
     11 C         143.1771  138.9562  155.6313 C.3     1  UNL1        0.1490
     12 C         142.9453  138.4290  157.0163 C.3     1  UNL1        0.1141
     13 C         143.5248  137.3760  156.1190 C.3     1  UNL1        0.0318
     14 O         143.1369  137.1324  157.7457 O.3     1  UNL1       -0.3843
     15 C         142.5057  138.5346  158.4466 C.3     1  UNL1        0.0367
     16 C         141.9455  139.2520  159.6388 C.3     1  UNL1        0.0601
     17 C         141.9673  138.1964  160.7042 C.3     1  UNL1        0.0078
     18 C         141.3757  140.4393  160.3568 C.2     1  UNL1        0.1516
     19 O         141.1438  139.9122  161.7419 O.2     1  UNL1       -0.2960
     20 C         140.9090  141.8613  160.4585 C.3     1  UNL1        0.0794
     21 C         140.4694  141.9669  161.8887 C.3     1  UNL1        0.0096
     22 C         140.6379  143.2362  159.9236 C.3     1  UNL1        0.1254
     23 N         140.0934  143.8391  161.1846 N.am    1  UNL1       -0.2426
     24 C         139.7352  145.2673  160.8985 C.2     1  UNL1        0.4049
     25 O         139.1556  146.2442  161.8782 O.2     1  UNL1       -0.2262
     26 O         140.0583  145.5471  159.4607 O.3     1  UNL1       -0.4365
     27 C         140.6162  144.2919  158.8582 C.3     1  UNL1        0.1908
     28 C         140.3684  145.6465  158.2635 C.3     1  UNL1        0.0493
     29 H         143.5119  136.4734  157.1407 H       1  UNL1        0.2103
     30 C         139.9350  143.1370  162.5006 C.3     1  UNL1        0.1105
     31 C         140.7381  143.0602  163.7652 C.3     1  UNL1        0.0939
     32 N         139.7110  142.1441  164.3618 N.3     1  UNL1       -0.2659
     33 C         138.9080  142.2209  163.0972 C.3     1  UNL1        0.0939
     34 C         139.5527  141.4420  165.6779 C.3     1  UNL1        0.1024
     35 C         140.7244  140.7424  166.3006 C.ar    1  UNL1        0.0321
     36 C         141.3284  139.5461  165.6265 C.ar    1  UNL1        0.1501
     37 O         140.7607  139.0496  164.3300 O.3     1  UNL1       -0.5042
     38 C         142.5000  138.8465  166.2492 C.ar    1  UNL1        0.1368
     39 N         143.0677  139.3431  167.5458 N.ar    1  UNL1       -0.2219
     40 C         142.4637  140.5394  168.2197 C.ar    1  UNL1        0.1622
     41 N         143.0315  141.0359  169.5163 N.ar    1  UNL1       -0.2251
     42 C         142.4275  142.2322  170.1902 C.ar    1  UNL1        0.1006
     43 C         141.2558  142.9318  169.5676 C.ar    1  UNL1        0.0208
     44 C         140.6881  142.4353  168.2711 C.ar    1  UNL1        0.0045
     45 C         141.2921  141.2390  167.5971 C.ar    1  UNL1        0.0361
     46 H         140.0288  139.4866  163.9411 H       1  UNL1        0.2922
     47 C         139.5276  146.8295  156.4910 C.3     1  UNL1        0.0040
     48 C         140.3814  146.2410  157.5748 C.3     1  UNL1        0.0474
     49 O         143.7470  137.7689  154.9133 O.3     1  UNL1       -0.3283
     50 C         142.8487  136.6424  154.4965 C.3     1  UNL1        0.2643
     51 O         141.6178  136.9247  153.6871 O.3     1  UNL1       -0.3311
     52 C         140.7194  135.7981  153.2703 C.3     1  UNL1        0.1194
     53 C         139.4885  136.0804  152.4609 C.3     1  UNL1        0.0322
     54 C         141.0521  134.3890  153.6628 C.3     1  UNL1        0.0482
     55 C         142.2830  134.1066  154.4721 C.3     1  UNL1        0.0921
     56 C         143.1813  135.2333  154.8890 C.3     1  UNL1        0.1815
     57 O         144.4123  134.9509  155.6983 O.3     1  UNL1       -0.3783
     58 H         144.4785  133.9975  155.8642 H       1  UNL1        0.2106
     59 N         142.6156  132.6976  154.8647 N.3     1  UNL1       -0.2692
     60 C         143.0699  131.7168  153.8247 C.3     1  UNL1        0.0897
     61 C         142.4940  132.2696  156.2971 C.3     1  UNL1        0.0897
@<TRIPOS>BOND
     1    47    48    1
     2     1    48    1
     3     1     2    1
     4     2     3    1
     5     3     4    2
     6     3     5    1
     7     5     6    1
     8     5     7    1
     9     7     8    2
    10     7     9    1
    11     9    10    1
    12     9    11    1
    13    11    49    1
    14    50    49    1
    15    50    51    1
    16    51    52    1
    17    52    53    1
    18    52    54    1
    19    54    55    1
    20    55    59    1
    21    59    60    1
    22    59    61    1
    23    55    56    1
    24    56    57    1
    25    11    12    1
    26    12    13    1
    27    12    14    1
    28    12    15    1
    29    15    16    1
    30    16    17    1
    31    16    18    1
    32    18    19    2
    33    18    20    1
    34    20    21    1
    35    20    22    1
    36    22    23    1
    37    23    30    1
    38    30    31    1
    39    31    32    1
    40    32    34    1
    41    34    35    1
    42    35    36   ar
    43    36    37    1
    44    36    38   ar
    45    38    39   ar
    46    39    40   ar
    47    40    41   ar
    48    41    42   ar
    49    42    43   ar
    50    43    44   ar
    51    44    45   ar
    52    32    33    1
    53    23    24   am
    54    24    25    2
    55    24    26    1
    56    26    27    1
    57    27    28    1
    58    27     1    1
    59    56    50    1
    60    27    22    1
    61    33    30    1
    62    45    35   ar
    63    45    40   ar
    64    57    58    1
    65    14    29    1
    66    37    46    1
@<TRIPOS>MOLECULE
*****
 61 66 0 0 0
SMALL
GASTEIGER

@<TRIPOS>ATOM
      1 C         140.1961  144.8680  157.1284 C.3     1  UNL1        0.2066
      2 O         140.2894  144.6664  155.6449 O.3     1  UNL1       -0.4483
      3 C         140.3066  143.8427  154.3914 C.2     1  UNL1        0.3235
      4 O         140.4853  144.8740  153.3168 O.2     1  UNL1       -0.2496
      5 C         140.2442  142.5602  153.6161 C.3     1  UNL1        0.1563
      6 C         140.3952  143.0205  152.1965 C.3     1  UNL1        0.0196
      7 C         140.1147  141.0727  153.4725 C.2     1  UNL1        0.1629
      8 O         140.2080  140.8712  151.9891 O.2     1  UNL1       -0.2954
      9 C         139.9436  139.6749  153.9893 C.3     1  UNL1        0.0877
     10 C         139.9608  138.8513  152.7357 C.3     1  UNL1        0.0104
     11 C         139.7649  138.6437  155.0638 C.3     1  UNL1        0.1490
     12 C         139.6139  138.1832  156.4834 C.3     1  UNL1        0.1141
     13 C         139.5774  137.0291  155.5261 C.3     1  UNL1        0.0318
     14 O         139.4363  136.8795  157.2035 O.3     1  UNL1       -0.3843
     15 C         139.5206  138.3849  157.9669 C.3     1  UNL1        0.0367
     16 C         139.5034  139.2084  159.2204 C.3     1  UNL1        0.0601
     17 C         139.3247  138.1772  160.2949 C.3     1  UNL1        0.0078
     18 C         139.5658  140.4910  159.9957 C.2     1  UNL1        0.1516
     19 O         139.4148  140.0307  161.4153 O.2     1  UNL1       -0.2960
     20 C         139.6953  141.9785  160.1393 C.3     1  UNL1        0.0794
     21 C         139.6020  142.1801  161.6227 C.3     1  UNL1        0.0096
     22 C         139.8664  143.3763  159.6225 C.3     1  UNL1        0.1254
     23 N         139.8332  144.0850  160.9441 N.am    1  UNL1       -0.2426
     24 C         139.9914  145.5542  160.6865 C.2     1  UNL1        0.4049
     25 O         140.0146  146.6344  161.7270 O.2     1  UNL1       -0.2262
     26 O         140.1224  145.7535  159.2055 O.3     1  UNL1       -0.4365
     27 C         140.0451  144.4075  158.5480 C.3     1  UNL1        0.1908
     28 C         140.2186  145.7804  157.9689 C.3     1  UNL1        0.0493
     29 H         139.4166  136.1544  156.5594 H       1  UNL1        0.2103
     30 C         139.6704  143.4380  162.2876 C.3     1  UNL1        0.1105
     31 C         138.5097  142.9065  163.0752 C.3     1  UNL1        0.0939
     32 N         139.4401  142.5231  164.1876 N.3     1  UNL1       -0.2659
     33 C         140.6008  143.0546  163.4000 C.3     1  UNL1        0.0939
     34 C         139.2772  141.8760  165.5311 C.3     1  UNL1        0.1024
     35 C         140.4201  141.1226  166.1443 C.ar    1  UNL1        0.0321
     36 C         140.9871  139.9218  165.4465 C.ar    1  UNL1        0.1501
     37 O         140.4113  139.4746  164.1357 O.3     1  UNL1       -0.5042
     38 C         142.1300  139.1683  166.0597 C.ar    1  UNL1        0.1368
     39 N         142.7059  139.6155  167.3706 N.ar    1  UNL1       -0.2219
     40 C         142.1388  140.8162  168.0683 C.ar    1  UNL1        0.1622
     41 N         142.7147  141.2634  169.3792 N.ar    1  UNL1       -0.2251
     42 C         142.1477  142.4641  170.0769 C.ar    1  UNL1        0.1006
     43 C         141.0047  143.2177  169.4636 C.ar    1  UNL1        0.0208
     44 C         140.4289  142.7705  168.1528 C.ar    1  UNL1        0.0045
     45 C         140.9959  141.5697  167.4551 C.ar    1  UNL1        0.0361
     46 H         139.6973  139.9453  163.7527 H       1  UNL1        0.2922
     47 C         139.4333  147.2658  156.4815 C.3     1  UNL1        0.0040
     48 C         140.3256  146.3554  157.2719 C.3     1  UNL1        0.0474
     49 O         139.7025  137.3611  154.2885 O.3     1  UNL1       -0.3283
     50 C         140.6669  136.2533  154.5926 C.3     1  UNL1        0.2643
     51 O         141.6383  136.3947  155.7267 O.3     1  UNL1       -0.3311
     52 C         142.6028  135.2869  156.0309 C.3     1  UNL1        0.1194
     53 C         143.5742  135.4283  157.1650 C.3     1  UNL1        0.0322
     54 C         142.5958  134.0375  155.2009 C.3     1  UNL1        0.0482
     55 C         141.6243  133.8959  154.0667 C.3     1  UNL1        0.0921
     56 C         140.6599  135.0039  153.7626 C.3     1  UNL1        0.1815
     57 O         139.6885  134.8623  152.6284 O.3     1  UNL1       -0.3783
     58 H         139.8161  134.0021  152.1988 H       1  UNL1        0.2106
     59 N         141.6174  132.6465  153.2367 N.3     1  UNL1       -0.2692
     60 C         142.4221  132.5814  151.9725 C.3     1  UNL1        0.0897
     61 C         140.8056  131.4623  153.6708 C.3     1  UNL1        0.0897
@<TRIPOS>BOND
     1    47    48    1
     2     1    48    1
     3     1     2    1
     4     2     3    1
     5     3     4    2
     6     3     5    1
     7     5     6    1
     8     5     7    1
     9     7     8    2
    10     7     9    1
    11     9    10    1
    12     9    11    1
    13    11    49    1
    14    50    49    1
    15    50    51    1
    16    51    52    1
    17    52    53    1
    18    52    54    1
    19    54    55    1
    20    55    59    1
    21    59    60    1
    22    59    61    1
    23    55    56    1
    24    56    57    1
    25    11    12    1
    26    12    13    1
    27    12    14    1
    28    12    15    1
    29    15    16    1
    30    16    17    1
    31    16    18    1
    32    18    19    2
    33    18    20    1
    34    20    21    1
    35    20    22    1
    36    22    23    1
    37    23    30    1
    38    30    31    1
    39    31    32    1
    40    32    34    1
    41    34    35    1
    42    35    36   ar
    43    36    37    1
    44    36    38   ar
    45    38    39   ar
    46    39    40   ar
    47    40    41   ar
    48    41    42   ar
    49    42    43   ar
    50    43    44   ar
    51    44    45   ar
    52    32    33    1
    53    23    24   am
    54    24    25    2
    55    24    26    1
    56    26    27    1
    57    27    28    1
    58    27     1    1
    59    56    50    1
    60    27    22    1
    61    33    30    1
    62    45    35   ar
    63    45    40   ar
    64    57    58    1
    65    14    29    1
    66    37    46    1
@<TRIPOS>MOLECULE
*****
 61 66 0 0 0
SMALL
GASTEIGER

@<TRIPOS>ATOM
      1 C         141.0448  143.5300  157.2909 C.3     1  UNL1        0.2066
      2 O         140.5231  144.5866  158.2192 O.3     1  UNL1       -0.4483
      3 C         140.0958  145.1219  159.5536 C.2     1  UNL1        0.3235
      4 O         139.6935  146.5313  159.2346 O.2     1  UNL1       -0.2496
      5 C         139.8476  145.0300  161.0300 C.3     1  UNL1        0.1563
      6 C         139.3348  146.3985  161.3682 C.3     1  UNL1        0.0196
      7 C         139.8275  144.3291  162.3561 C.2     1  UNL1        0.1629
      8 O         139.3059  145.3857  163.2842 O.2     1  UNL1       -0.2954
      9 C         140.0397  143.1580  163.2690 C.3     1  UNL1        0.0877
     10 C         139.6124  143.6933  164.6035 C.3     1  UNL1        0.0104
     11 C         140.4420  141.7486  163.5880 C.3     1  UNL1        0.1490
     12 C         140.9548  140.3801  163.2500 C.3     1  UNL1        0.1141
     13 C         140.6394  140.5016  164.7114 C.3     1  UNL1        0.0318
     14 O         141.2371  139.1004  163.9797 O.3     1  UNL1       -0.3843
     15 C         141.4765  139.3235  162.3218 C.3     1  UNL1        0.0367
     16 C         141.9038  138.7882  160.9874 C.3     1  UNL1        0.0601
     17 C         142.3061  137.3788  161.3064 C.3     1  UNL1        0.0078
     18 C         142.1520  138.8801  159.5109 C.2     1  UNL1        0.1516
     19 O         142.6648  137.5116  159.1728 O.2     1  UNL1       -0.2960
     20 C         142.1720  139.5809  158.1848 C.3     1  UNL1        0.0794
     21 C         142.6937  138.5244  157.2567 C.3     1  UNL1        0.0096
     22 C         141.9599  140.7521  157.2719 C.3     1  UNL1        0.1254
     23 N         142.4137  140.1003  155.9994 N.am    1  UNL1       -0.2426
     24 C         142.2918  141.1068  154.8940 C.2     1  UNL1        0.4049
     25 O         142.6383  140.8794  153.4523 O.2     1  UNL1       -0.2262
     26 O         141.7627  142.3807  155.4832 O.3     1  UNL1       -0.4365
     27 C         141.5576  142.1615  156.9529 C.3     1  UNL1        0.1908
     28 C         141.3238  143.3681  156.0929 C.3     1  UNL1        0.0493
     29 H         141.0239  139.2103  164.9196 H       1  UNL1        0.2103
     30 C         142.9033  138.6896  155.8574 C.3     1  UNL1        0.1105
     31 C         144.1756  138.0511  155.3847 C.3     1  UNL1        0.0939
     32 N         143.5959  136.6946  155.6565 N.3     1  UNL1       -0.2659
     33 C         142.3236  137.3332  156.1293 C.3     1  UNL1        0.0939
     34 C         144.0856  135.2839  155.5145 C.3     1  UNL1        0.1024
     35 C         143.1806  134.2289  154.9506 C.ar    1  UNL1        0.0321
     36 C         142.3243  134.5348  153.7576 C.ar    1  UNL1        0.1501
     37 O         142.3729  135.8956  153.1286 O.3     1  UNL1       -0.5042
     38 C         141.4193  133.4798  153.1938 C.ar    1  UNL1        0.1368
     39 N         141.3706  132.1190  153.8229 N.ar    1  UNL1       -0.2219
     40 C         142.2270  131.8132  155.0159 C.ar    1  UNL1        0.1622
     41 N         142.1783  130.4523  155.6449 N.ar    1  UNL1       -0.2251
     42 C         143.0346  130.1464  156.8379 C.ar    1  UNL1        0.1006
     43 C         143.9397  131.2015  157.4017 C.ar    1  UNL1        0.0208
     44 C         143.9883  132.5623  156.7727 C.ar    1  UNL1        0.0045
     45 C         143.1320  132.8682  155.5797 C.ar    1  UNL1        0.0361
     46 H         142.9383  136.5546  153.4808 H       1  UNL1        0.2922
     47 C         139.9084  145.0940  155.5553 C.3     1  UNL1        0.0040
     48 C         141.0648  144.2309  155.9650 C.3     1  UNL1        0.0474
     49 O         140.1938  141.6567  165.0645 O.3     1  UNL1       -0.3283
     50 C         141.3161  141.8974  166.0301 C.3     1  UNL1        0.2643
     51 O         142.5589  142.6032  165.5748 O.3     1  UNL1       -0.3311
     52 C         143.6812  142.8440  166.5404 C.3     1  UNL1        0.1194
     53 C         144.9240  143.5498  166.0851 C.3     1  UNL1        0.0322
     54 C         143.5608  142.3789  167.9614 C.3     1  UNL1        0.0482
     55 C         142.3180  141.6731  168.4168 C.3     1  UNL1        0.0921
     56 C         141.1956  141.4324  167.4511 C.3     1  UNL1        0.1815
     57 O         139.9528  140.7266  167.9065 O.3     1  UNL1       -0.3783
     58 H         140.0376  140.4955  168.8447 H       1  UNL1        0.2106
     59 N         142.1975  141.2081  169.8378 N.3     1  UNL1       -0.2692
     60 C         142.6020  139.8116  170.2067 C.3     1  UNL1        0.0897
     61 C         141.6725  142.1396  170.8898 C.3     1  UNL1        0.0897
@<TRIPOS>BOND
     1    47    48    1
     2     1    48    1
     3     1     2    1
     4     2     3    1
     5     3     4    2
     6     3     5    1
     7     5     6    1
     8     5     7    1
     9     7     8    2
    10     7     9    1
    11     9    10    1
    12     9    11    1
    13    11    49    1
    14    50    49    1
    15    50    51    1
    16    51    52    1
    17    52    53    1
    18    52    54    1
    19    54    55    1
    20    55    59    1
    21    59    60    1
    22    59    61    1
    23    55    56    1
    24    56    57    1
    25    11    12    1
    26    12    13    1
    27    12    14    1
    28    12    15    1
    29    15    16    1
    30    16    17    1
    31    16    18    1
    32    18    19    2
    33    18    20    1
    34    20    21    1
    35    20    22    1
    36    22    23    1
    37    23    30    1
    38    30    31    1
    39    31    32    1
    40    32    34    1
    41    34    35    1
    42    35    36   ar
    43    36    37    1
    44    36    38   ar
    45    38    39   ar
    46    39    40   ar
    47    40    41   ar
    48    41    42   ar
    49    42    43   ar
    50    43    44   ar
    51    44    45   ar
    52    32    33    1
    53    23    24   am
    54    24    25    2
    55    24    26    1
    56    26    27    1
    57    27    28    1
    58    27     1    1
    59    56    50    1
    60    27    22    1
    61    33    30    1
    62    45    35   ar
    63    45    40   ar
    64    57    58    1
    65    14    29    1
    66    37    46    1
@<TRIPOS>MOLECULE
*****
 61 66 0 0 0
SMALL
GASTEIGER

@<TRIPOS>ATOM
      1 C         142.9659  140.3517  157.9277 C.3     1  UNL1        0.2066
      2 O         143.4914  139.4194  158.9788 O.3     1  UNL1       -0.4483
      3 C         143.7609  138.9876  160.3898 C.2     1  UNL1        0.3235
      4 O         144.4560  137.6707  160.2089 O.2     1  UNL1       -0.2496
      5 C         143.7211  139.1419  161.8812 C.3     1  UNL1        0.1563
      6 C         144.3985  137.8938  162.3642 C.3     1  UNL1        0.0196
      7 C         143.3799  139.8517  163.1579 C.2     1  UNL1        0.1629
      8 O         143.9054  138.9194  164.2089 O.2     1  UNL1       -0.2954
      9 C         142.8048  140.9764  163.9667 C.3     1  UNL1        0.0877
     10 C         143.0743  140.5446  165.3777 C.3     1  UNL1        0.0104
     11 C         142.1097  142.2933  164.1476 C.3     1  UNL1        0.1490
     12 C         141.4323  143.5415  163.6648 C.3     1  UNL1        0.1141
     13 C         141.4979  143.4980  165.1627 C.3     1  UNL1        0.0318
     14 O         140.8029  144.7579  164.2764 O.3     1  UNL1       -0.3843
     15 C         140.9068  144.4738  162.6137 C.3     1  UNL1        0.0367
     16 C         140.6373  144.9056  161.2028 C.3     1  UNL1        0.0601
     17 C         139.9422  146.2225  161.3837 C.3     1  UNL1        0.0078
     18 C         140.6771  144.7513  159.7113 C.2     1  UNL1        0.1516
     19 O         139.9998  145.9995  159.2283 O.2     1  UNL1       -0.2960
     20 C         141.0183  144.0415  158.4346 C.3     1  UNL1        0.0794
     21 C         140.4929  144.9738  157.3836 C.3     1  UNL1        0.0096
     22 C         141.5935  142.9168  157.6258 C.3     1  UNL1        0.1254
     23 N         141.2666  143.4590  156.2659 N.am    1  UNL1       -0.2426
     24 C         141.7597  142.4773  155.2446 C.2     1  UNL1        0.4049
     25 O         141.6419  142.6197  153.7560 O.2     1  UNL1       -0.2262
     26 O         142.3913  141.3284  155.9732 O.3     1  UNL1       -0.4365
     27 C         142.2885  141.5999  157.4449 C.3     1  UNL1        0.1908
     28 C         142.8814  140.4450  156.6934 C.3     1  UNL1        0.0493
     29 H         140.8607  144.7006  165.2430 H       1  UNL1        0.2103
     30 C         140.5692  144.7555  155.9780 C.3     1  UNL1        0.1105
     31 C         139.1879  145.1421  155.5392 C.3     1  UNL1        0.0939
     32 N         139.5828  146.5888  155.5708 N.3     1  UNL1       -0.2659
     33 C         140.9641  146.2022  156.0097 C.3     1  UNL1        0.0939
     34 C         138.8852  147.8852  155.2829 C.3     1  UNL1        0.1024
     35 C         139.4440  148.8259  154.2568 C.ar    1  UNL1        0.0321
     36 C         140.1588  148.2851  153.0540 C.ar    1  UNL1        0.1501
     37 O         140.3149  146.8038  152.8774 O.3     1  UNL1       -0.5042
     38 C         140.7176  149.2257  152.0279 C.ar    1  UNL1        0.1368
     39 N         140.5615  150.7071  152.2045 N.ar    1  UNL1       -0.2219
     40 C         139.8467  151.2478  153.4073 C.ar    1  UNL1        0.1622
     41 N         139.6907  152.7292  153.5839 N.ar    1  UNL1       -0.2251
     42 C         138.9759  153.2699  154.7866 C.ar    1  UNL1        0.1006
     43 C         138.4171  152.3292  155.8128 C.ar    1  UNL1        0.0208
     44 C         138.5731  150.8480  155.6362 C.ar    1  UNL1        0.0045
     45 C         139.2880  150.3072  154.4334 C.ar    1  UNL1        0.0361
     46 H         139.9658  146.2162  153.5184 H       1  UNL1        0.2922
     47 C         142.9761  138.1879  156.4898 C.3     1  UNL1        0.0040
     48 C         143.3072  139.6419  156.6511 C.3     1  UNL1        0.0474
     49 O         142.0699  142.4476  165.6392 O.3     1  UNL1       -0.3283
     50 C         141.0657  141.6792  166.4461 C.3     1  UNL1        0.2643
     51 O         140.0930  140.7662  165.7604 O.3     1  UNL1       -0.3311
     52 C         139.0888  139.9978  166.5674 C.3     1  UNL1        0.1194
     53 C         138.1160  139.0848  165.8818 C.3     1  UNL1        0.0322
     54 C         139.0574  140.1424  168.0601 C.3     1  UNL1        0.0482
     55 C         140.0301  141.0554  168.7458 C.3     1  UNL1        0.0921
     56 C         141.0343  141.8238  167.9388 C.3     1  UNL1        0.1815
     57 O         142.0071  142.7369  168.6245 O.3     1  UNL1       -0.3783
     58 H         141.8522  142.7141  169.5818 H       1  UNL1        0.2106
     59 N         139.9987  141.2000  170.2385 N.3     1  UNL1       -0.2692
     60 C         139.5781  142.5000  170.8574 C.3     1  UNL1        0.0897
     61 C         140.3878  140.0445  171.1123 C.3     1  UNL1        0.0897
@<TRIPOS>BOND
     1    47    48    1
     2     1    48    1
     3     1     2    1
     4     2     3    1
     5     3     4    2
     6     3     5    1
     7     5     6    1
     8     5     7    1
     9     7     8    2
    10     7     9    1
    11     9    10    1
    12     9    11    1
    13    11    49    1
    14    50    49    1
    15    50    51    1
    16    51    52    1
    17    52    53    1
    18    52    54    1
    19    54    55    1
    20    55    59    1
    21    59    60    1
    22    59    61    1
    23    55    56    1
    24    56    57    1
    25    11    12    1
    26    12    13    1
    27    12    14    1
    28    12    15    1
    29    15    16    1
    30    16    17    1
    31    16    18    1
    32    18    19    2
    33    18    20    1
    34    20    21    1
    35    20    22    1
    36    22    23    1
    37    23    30    1
    38    30    31    1
    39    31    32    1
    40    32    34    1
    41    34    35    1
    42    35    36   ar
    43    36    37    1
    44    36    38   ar
    45    38    39   ar
    46    39    40   ar
    47    40    41   ar
    48    41    42   ar
    49    42    43   ar
    50    43    44   ar
    51    44    45   ar
    52    32    33    1
    53    23    24   am
    54    24    25    2
    55    24    26    1
    56    26    27    1
    57    27    28    1
    58    27     1    1
    59    56    50    1
    60    27    22    1
    61    33    30    1
    62    45    35   ar
    63    45    40   ar
    64    57    58    1
    65    14    29    1
    66    37    46    1
@<TRIPOS>MOLECULE
*****
 61 66 0 0 0
SMALL
GASTEIGER

@<TRIPOS>ATOM
      1 C         140.2418  144.9121  157.1395 C.3     1  UNL1        0.2066
      2 O         140.3498  144.7212  155.6556 O.3     1  UNL1       -0.4483
      3 C         140.3682  143.9078  154.3955 C.2     1  UNL1        0.3235
      4 O         140.5778  144.9446  153.3320 O.2     1  UNL1       -0.2496
      5 C         140.2934  142.6330  153.6087 C.3     1  UNL1        0.1563
      6 C         140.4696  143.1023  152.1950 C.3     1  UNL1        0.0196
      7 C         140.1400  141.1492  153.4509 C.2     1  UNL1        0.1629
      8 O         140.2481  140.9583  151.9671 O.2     1  UNL1       -0.2954
      9 C         139.9386  139.7503  153.9536 C.3     1  UNL1        0.0877
     10 C         139.9570  138.9369  152.6934 C.3     1  UNL1        0.0104
     11 C         139.7291  138.7135  155.0171 C.3     1  UNL1        0.1490
     12 C         139.5528  138.2439  156.4308 C.3     1  UNL1        0.1141
     13 C         139.5082  137.0985  155.4633 C.3     1  UNL1        0.0318
     14 O         139.3440  136.9375  157.1376 O.3     1  UNL1       -0.3843
     15 C         139.4448  138.4349  157.9147 C.3     1  UNL1        0.0367
     16 C         139.4264  139.2482  159.1748 C.3     1  UNL1        0.0601
     17 C         139.2168  138.2114  160.2383 C.3     1  UNL1        0.0078
     18 C         139.5012  140.5231  159.9617 C.2     1  UNL1        0.1516
     19 O         139.3250  140.0537  161.3754 O.2     1  UNL1       -0.2960
     20 C         139.6545  142.0069  160.1195 C.3     1  UNL1        0.0794
     21 C         139.5465  142.1977  161.6033 C.3     1  UNL1        0.0096
     22 C         139.8560  143.4057  159.6167 C.3     1  UNL1        0.1254
     23 N         139.8187  144.1039  160.9438 N.am    1  UNL1       -0.2426
     24 C         140.0053  145.5722  160.7006 C.2     1  UNL1        0.4049
     25 O         140.0343  146.6432  161.7504 O.2     1  UNL1       -0.2262
     26 O         140.1578  145.7815  159.2231 O.3     1  UNL1       -0.4365
     27 C         140.0655  144.4426  158.5532 C.3     1  UNL1        0.1908
     28 C         140.2696  145.8169  157.9880 C.3     1  UNL1        0.0493
     29 H         139.3198  136.2183  156.4872 H       1  UNL1        0.2103
     30 C         139.6284  143.4487  162.2797 C.3     1  UNL1        0.1105
     31 C         138.4449  142.9700  163.0672 C.3     1  UNL1        0.0939
     32 N         139.3591  142.5222  164.1689 N.3     1  UNL1       -0.2659
     33 C         140.5426  143.0010  163.3814 C.3     1  UNL1        0.0939
     34 C         139.1686  141.8670  165.5048 C.3     1  UNL1        0.1024
     35 C         140.3433  141.2708  166.2221 C.ar    1  UNL1        0.0321
     36 C         140.8945  141.9418  167.4453 C.ar    1  UNL1        0.1501
     37 O         140.2710  143.2087  167.9510 O.3     1  UNL1       -0.5042
     38 C         142.0692  141.3456  168.1627 C.ar    1  UNL1        0.1368
     39 N         142.6927  140.0785  167.6569 N.ar    1  UNL1       -0.2219
     40 C         142.1415  139.4077  166.4337 C.ar    1  UNL1        0.1622
     41 N         142.7651  138.1406  165.9280 N.ar    1  UNL1       -0.2251
     42 C         142.2139  137.4697  164.7048 C.ar    1  UNL1        0.1006
     43 C         141.0391  138.0659  163.9874 C.ar    1  UNL1        0.0208
     44 C         140.4156  139.3329  164.4932 C.ar    1  UNL1        0.0045
     45 C         140.9668  140.0039  165.7164 C.ar    1  UNL1        0.0361
     46 H         139.5372  143.5812  167.5029 H       1  UNL1        0.2922
     47 C         139.3431  147.3199  156.7595 C.3     1  UNL1        0.0040
     48 C         140.3951  146.3958  157.2972 C.3     1  UNL1        0.0474
     49 O         139.6542  137.4386  154.2303 O.3     1  UNL1       -0.3283
     50 C         140.6090  136.3194  154.5230 C.3     1  UNL1        0.2643
     51 O         141.5363  136.4127  155.6983 O.3     1  UNL1       -0.3311
     52 C         142.4911  135.2935  155.9910 C.3     1  UNL1        0.1194
     53 C         143.4185  135.3868  157.1663 C.3     1  UNL1        0.0322
     54 C         142.5186  134.0809  155.1084 C.3     1  UNL1        0.0482
     55 C         141.5913  133.9876  153.9331 C.3     1  UNL1        0.0921
     56 C         140.6365  135.1069  153.6404 C.3     1  UNL1        0.1815
     57 O         139.7091  135.0135  152.4650 O.3     1  UNL1       -0.3783
     58 H         139.8550  134.1726  152.0041 H       1  UNL1        0.2106
     59 N         141.6188  132.7750  153.0505 N.3     1  UNL1       -0.2692
     60 C         142.9196  132.2904  152.4822 C.3     1  UNL1        0.0897
     61 C         140.3455  132.0472  152.7362 C.3     1  UNL1        0.0897
@<TRIPOS>BOND
     1    47    48    1
     2     1    48    1
     3     1     2    1
     4     2     3    1
     5     3     4    2
     6     3     5    1
     7     5     6    1
     8     5     7    1
     9     7     8    2
    10     7     9    1
    11     9    10    1
    12     9    11    1
    13    11    49    1
    14    50    49    1
    15    50    51    1
    16    51    52    1
    17    52    53    1
    18    52    54    1
    19    54    55    1
    20    55    59    1
    21    59    60    1
    22    59    61    1
    23    55    56    1
    24    56    57    1
    25    11    12    1
    26    12    13    1
    27    12    14    1
    28    12    15    1
    29    15    16    1
    30    16    17    1
    31    16    18    1
    32    18    19    2
    33    18    20    1
    34    20    21    1
    35    20    22    1
    36    22    23    1
    37    23    30    1
    38    30    31    1
    39    31    32    1
    40    32    34    1
    41    34    35    1
    42    35    36   ar
    43    36    37    1
    44    36    38   ar
    45    38    39   ar
    46    39    40   ar
    47    40    41   ar
    48    41    42   ar
    49    42    43   ar
    50    43    44   ar
    51    44    45   ar
    52    32    33    1
    53    23    24   am
    54    24    25    2
    55    24    26    1
    56    26    27    1
    57    27    28    1
    58    27     1    1
    59    56    50    1
    60    27    22    1
    61    33    30    1
    62    45    35   ar
    63    45    40   ar
    64    57    58    1
    65    14    29    1
    66    37    46    1
@<TRIPOS>MOLECULE
*****
 61 66 0 0 0
SMALL
GASTEIGER

@<TRIPOS>ATOM
      1 C         142.3016  139.4808  156.3810 C.3     1  UNL1        0.2066
      2 O         142.6782  138.5541  157.4988 O.3     1  UNL1       -0.4483
      3 C         142.9754  138.2121  158.9287 C.2     1  UNL1        0.3235
      4 O         143.2861  136.7460  158.8636 O.2     1  UNL1       -0.2496
      5 C         143.1344  138.5225  160.3875 C.3     1  UNL1        0.1563
      6 C         143.5158  137.1946  160.9717 C.3     1  UNL1        0.0196
      7 C         143.1236  139.4238  161.5865 C.2     1  UNL1        0.1629
      8 O         143.5002  138.4971  162.7042 O.2     1  UNL1       -0.2954
      9 C         142.9453  140.7377  162.2879 C.3     1  UNL1        0.0877
     10 C         143.2425  140.3956  163.7179 C.3     1  UNL1        0.0104
     11 C         142.6346  142.2037  162.3530 C.3     1  UNL1        0.1490
     12 C         142.2533  143.5317  161.7689 C.3     1  UNL1        0.1141
     13 C         142.4634  143.6249  163.2512 C.3     1  UNL1        0.0318
     14 O         142.0254  144.9277  162.2678 O.3     1  UNL1       -0.3843
     15 C         141.8767  144.4584  160.6511 C.3     1  UNL1        0.0367
     16 C         141.5795  144.8004  159.2213 C.3     1  UNL1        0.0601
     17 C         141.2688  146.2665  159.2864 C.3     1  UNL1        0.0078
     18 C         141.4205  144.4900  157.7624 C.2     1  UNL1        0.1516
     19 O         141.0391  145.8179  157.1782 O.2     1  UNL1       -0.2960
     20 C         141.4312  143.5887  156.5634 C.3     1  UNL1        0.0794
     21 C         141.0547  144.5154  155.4457 C.3     1  UNL1        0.0096
     22 C         141.6096  142.2748  155.8620 C.3     1  UNL1        0.1254
     23 N         141.2911  142.7433  154.4730 N.am    1  UNL1       -0.2426
     24 C         141.4049  141.5668  153.5495 C.2     1  UNL1        0.4049
     25 O         141.1709  141.5830  152.0679 O.2     1  UNL1       -0.2262
     26 O         141.7937  140.3712  154.3677 O.3     1  UNL1       -0.4365
     27 C         141.9202  140.8088  155.7969 C.3     1  UNL1        0.1908
     28 C         142.1139  139.4671  155.1546 C.3     1  UNL1        0.0493
     29 H         142.1684  144.9558  163.2268 H       1  UNL1        0.2103
     30 C         140.9234  144.1426  154.0771 C.3     1  UNL1        0.1105
     31 C         139.7006  144.7963  153.5049 C.3     1  UNL1        0.0939
     32 N         140.4034  146.1215  153.5173 N.3     1  UNL1       -0.2659
     33 C         141.6261  145.4677  154.0895 C.3     1  UNL1        0.0939
     34 C         140.0355  147.5208  153.1214 C.3     1  UNL1        0.1024
     35 C         139.6570  148.5225  154.1717 C.ar    1  UNL1        0.0321
     36 C         138.8836  148.0858  155.3805 C.ar    1  UNL1        0.1501
     37 O         138.4888  146.6475  155.5390 O.3     1  UNL1       -0.5042
     38 C         138.5050  149.0875  156.4308 C.ar    1  UNL1        0.1368
     39 N         138.8998  150.5259  156.2724 N.ar    1  UNL1       -0.2219
     40 C         139.6732  150.9626  155.0636 C.ar    1  UNL1        0.1622
     41 N         140.0680  152.4011  154.9052 N.ar    1  UNL1       -0.2251
     42 C         140.8414  152.8377  153.6964 C.ar    1  UNL1        0.1006
     43 C         141.2200  151.8359  152.6460 C.ar    1  UNL1        0.0208
     44 C         140.8252  150.3976  152.8045 C.ar    1  UNL1        0.0045
     45 C         140.0518  149.9609  154.0133 C.ar    1  UNL1        0.0361
     46 H         138.7252  146.0217  154.8828 H       1  UNL1        0.2922
     47 C         143.3990  137.5581  155.0214 C.3     1  UNL1        0.0040
     48 C         142.3124  138.5795  155.1821 C.3     1  UNL1        0.0474
     49 O         142.7936  142.5141  163.8119 O.3     1  UNL1       -0.3283
     50 C         141.5874  142.8202  164.6494 C.3     1  UNL1        0.2643
     51 O         140.3686  143.4236  164.0167 O.3     1  UNL1       -0.3311
     52 C         139.1623  143.7297  164.8542 C.3     1  UNL1        0.1194
     53 C         137.9435  144.3331  164.2215 C.3     1  UNL1        0.0322
     54 C         139.1749  143.4322  166.3244 C.3     1  UNL1        0.0482
     55 C         140.3937  142.8288  166.9571 C.3     1  UNL1        0.0921
     56 C         141.6000  142.5227  166.1195 C.3     1  UNL1        0.1815
     57 O         142.8189  141.9193  166.7523 O.3     1  UNL1       -0.3783
     58 H         142.6614  141.7922  167.7009 H       1  UNL1        0.2106
     59 N         140.4063  142.5313  168.4273 N.3     1  UNL1       -0.2692
     60 C         140.2126  141.1243  168.9095 C.3     1  UNL1        0.0897
     61 C         140.6126  143.6411  169.4151 C.3     1  UNL1        0.0897
@<TRIPOS>BOND
     1    47    48    1
     2     1    48    1
     3     1     2    1
     4     2     3    1
     5     3     4    2
     6     3     5    1
     7     5     6    1
     8     5     7    1
     9     7     8    2
    10     7     9    1
    11     9    10    1
    12     9    11    1
    13    11    49    1
    14    50    49    1
    15    50    51    1
    16    51    52    1
    17    52    53    1
    18    52    54    1
    19    54    55    1
    20    55    59    1
    21    59    60    1
    22    59    61    1
    23    55    56    1
    24    56    57    1
    25    11    12    1
    26    12    13    1
    27    12    14    1
    28    12    15    1
    29    15    16    1
    30    16    17    1
    31    16    18    1
    32    18    19    2
    33    18    20    1
    34    20    21    1
    35    20    22    1
    36    22    23    1
    37    23    30    1
    38    30    31    1
    39    31    32    1
    40    32    34    1
    41    34    35    1
    42    35    36   ar
    43    36    37    1
    44    36    38   ar
    45    38    39   ar
    46    39    40   ar
    47    40    41   ar
    48    41    42   ar
    49    42    43   ar
    50    43    44   ar
    51    44    45   ar
    52    32    33    1
    53    23    24   am
    54    24    25    2
    55    24    26    1
    56    26    27    1
    57    27    28    1
    58    27     1    1
    59    56    50    1
    60    27    22    1
    61    33    30    1
    62    45    35   ar
    63    45    40   ar
    64    57    58    1
    65    14    29    1
    66    37    46    1
@<TRIPOS>MOLECULE
*****
 61 66 0 0 0
SMALL
GASTEIGER

@<TRIPOS>ATOM
      1 C         143.0046  139.7276  156.3181 C.3     1  UNL1        0.2066
      2 O         143.0562  138.7667  157.4687 O.3     1  UNL1       -0.4483
      3 C         142.8211  138.3450  158.8889 C.2     1  UNL1        0.3235
      4 O         143.3607  136.9456  158.9152 O.2     1  UNL1       -0.2496
      5 C         142.3460  138.5460  160.2973 C.3     1  UNL1        0.1563
      6 C         142.6740  137.2362  160.9505 C.3     1  UNL1        0.0196
      7 C         141.7247  139.3300  161.4151 C.2     1  UNL1        0.1629
      8 O         141.7764  138.3690  162.5657 O.2     1  UNL1       -0.2954
      9 C         141.0805  140.5417  162.0208 C.3     1  UNL1        0.0877
     10 C         140.8455  140.1199  163.4410 C.3     1  UNL1        0.0104
     11 C         140.5410  141.9410  161.9945 C.3     1  UNL1        0.1490
     12 C         140.2128  143.2509  161.3414 C.3     1  UNL1        0.1141
     13 C         139.8093  143.2426  162.7861 C.3     1  UNL1        0.0318
     14 O         139.5899  144.5547  161.7438 O.3     1  UNL1       -0.3843
     15 C         140.1612  144.2119  160.1907 C.3     1  UNL1        0.0367
     16 C         140.3963  144.6336  158.7707 C.3     1  UNL1        0.0601
     17 C         139.8567  146.0329  158.7444 C.3     1  UNL1        0.0078
     18 C         140.8715  144.4325  157.3622 C.2     1  UNL1        0.1516
     19 O         140.5434  145.7424  156.7090 O.2     1  UNL1       -0.2960
     20 C         141.4927  143.6486  156.2444 C.3     1  UNL1        0.0794
     21 C         141.4411  144.6095  155.0938 C.3     1  UNL1        0.0096
     22 C         142.1369  142.4369  155.6387 C.3     1  UNL1        0.1254
     23 N         142.3166  142.9769  154.2508 N.am    1  UNL1       -0.2426
     24 C         142.9672  141.9114  153.4194 C.2     1  UNL1        0.4049
     25 O         143.3315  142.0246  151.9687 O.2     1  UNL1       -0.2262
     26 O         143.1897  140.7128  154.2934 O.3     1  UNL1       -0.4365
     27 C         142.6765  141.0375  155.6650 C.3     1  UNL1        0.1908
     28 C         143.3158  139.7953  155.1189 C.3     1  UNL1        0.0493
     29 H         139.3404  144.5183  162.6805 H       1  UNL1        0.2103
     30 C         141.9160  144.3428  153.7775 C.3     1  UNL1        0.1105
     31 C         140.7635  144.8982  152.9944 C.3     1  UNL1        0.0939
     32 N         141.3494  146.2743  153.1082 N.3     1  UNL1       -0.2659
     33 C         142.5019  145.7189  153.8913 C.3     1  UNL1        0.0939
     34 C         140.9487  147.6402  152.6349 C.3     1  UNL1        0.1024
     35 C         140.3754  148.6315  153.6036 C.ar    1  UNL1        0.0321
     36 C         139.3085  148.2062  154.5686 C.ar    1  UNL1        0.1501
     37 O         138.8151  146.7898  154.5647 O.3     1  UNL1       -0.5042
     38 C         138.7352  149.1976  155.5374 C.ar    1  UNL1        0.1368
     39 N         139.2287  150.6141  155.5412 N.ar    1  UNL1       -0.2219
     40 C         140.2955  151.0392  154.5763 C.ar    1  UNL1        0.1622
     41 N         140.7890  152.4558  154.5802 N.ar    1  UNL1       -0.2251
     42 C         141.8558  152.8810  153.6153 C.ar    1  UNL1        0.1006
     43 C         142.4292  151.8896  152.6464 C.ar    1  UNL1        0.0208
     44 C         141.9357  150.4732  152.6426 C.ar    1  UNL1        0.0045
     45 C         140.8689  150.0479  153.6075 C.ar    1  UNL1        0.0361
     46 H         139.1732  146.1706  153.9596 H       1  UNL1        0.2922
     47 C         143.2203  137.5183  154.9682 C.3     1  UNL1        0.0040
     48 C         143.6258  138.9437  155.2003 C.3     1  UNL1        0.0474
     49 O         140.0658  142.1421  163.4030 O.3     1  UNL1       -0.3283
     50 C         141.0594  142.3490  164.5074 C.3     1  UNL1        0.2643
     51 O         142.4371  142.8517  164.1924 O.3     1  UNL1       -0.3311
     52 C         143.4307  143.0587  165.2969 C.3     1  UNL1        0.1194
     53 C         144.8084  143.5613  164.9819 C.3     1  UNL1        0.0322
     54 C         143.0467  142.7629  166.7164 C.3     1  UNL1        0.0482
     55 C         141.6690  142.2602  167.0315 C.3     1  UNL1        0.0921
     56 C         140.6753  142.0533  165.9269 C.3     1  UNL1        0.1815
     57 O         139.2976  141.5506  166.2420 O.3     1  UNL1       -0.3783
     58 H         139.2152  141.4110  167.1984 H       1  UNL1        0.2106
     59 N         141.2849  141.9645  168.4510 N.3     1  UNL1       -0.2692
     60 C         141.4506  140.5783  168.9995 C.3     1  UNL1        0.0897
     61 C         140.7352  143.0550  169.3219 C.3     1  UNL1        0.0897
@<TRIPOS>BOND
     1    47    48    1
     2     1    48    1
     3     1     2    1
     4     2     3    1
     5     3     4    2
     6     3     5    1
     7     5     6    1
     8     5     7    1
     9     7     8    2
    10     7     9    1
    11     9    10    1
    12     9    11    1
    13    11    49    1
    14    50    49    1
    15    50    51    1
    16    51    52    1
    17    52    53    1
    18    52    54    1
    19    54    55    1
    20    55    59    1
    21    59    60    1
    22    59    61    1
    23    55    56    1
    24    56    57    1
    25    11    12    1
    26    12    13    1
    27    12    14    1
    28    12    15    1
    29    15    16    1
    30    16    17    1
    31    16    18    1
    32    18    19    2
    33    18    20    1
    34    20    21    1
    35    20    22    1
    36    22    23    1
    37    23    30    1
    38    30    31    1
    39    31    32    1
    40    32    34    1
    41    34    35    1
    42    35    36   ar
    43    36    37    1
    44    36    38   ar
    45    38    39   ar
    46    39    40   ar
    47    40    41   ar
    48    41    42   ar
    49    42    43   ar
    50    43    44   ar
    51    44    45   ar
    52    32    33    1
    53    23    24   am
    54    24    25    2
    55    24    26    1
    56    26    27    1
    57    27    28    1
    58    27     1    1
    59    56    50    1
    60    27    22    1
    61    33    30    1
    62    45    35   ar
    63    45    40   ar
    64    57    58    1
    65    14    29    1
    66    37    46    1
