@<TRIPOS>MOLECULE
*****
 36 41 0 0 0
SMALL
GASTEIGER

@<TRIPOS>ATOM
      1 C         137.9085  140.6151  163.5077 C.ar    1  UNL1        0.1533
      2 C         138.5927  140.8519  164.8215 C.ar    1  UNL1        0.0527
      3 C         139.3796  139.7497  165.4666 C.ar    1  UNL1        0.0510
      4 C         139.4821  138.4109  164.7981 C.ar    1  UNL1        0.0160
      5 C         138.7979  138.1742  163.4844 C.ar    1  UNL1        0.0190
      6 C         138.0111  139.2763  162.8392 C.ar    1  UNL1        0.0850
      7 N         140.0637  139.9865  166.7803 N.pl3   1  UNL1       -0.3045
      8 C         141.5328  140.2875  166.8172 C.3     1  UNL1        0.1090
      9 C         142.2171  140.5243  168.1309 C.3     1  UNL1        0.1041
     10 C         142.9014  140.7612  169.4446 C.3     1  UNL1        0.1595
     11 O         142.1165  140.6970  170.7213 O.3     1  UNL1       -0.3508
     12 C         140.6475  140.3961  170.6843 C.3     1  UNL1        0.1595
     13 C         139.9633  140.1592  169.3706 C.3     1  UNL1        0.1041
     14 C         139.2790  139.9224  168.0570 C.3     1  UNL1        0.1090
     15 N         140.7480  140.2234  168.0939 N.3     1  UNL1       -0.2928
     16 H         140.3142  140.9444  167.5175 H       1  UNL1        0.1234
     17 C         137.7977  143.0043  162.4930 C.3     1  UNL1        0.2525
     18 O         137.1217  141.7173  162.8625 O.3     1  UNL1       -0.4701
     19 N         137.3269  139.0395  161.5255 N.pl3   1  UNL1       -0.2802
     20 H         136.4071  138.6890  161.5057 H       1  UNL1        0.1552
     21 C         138.0440  139.3366  160.2420 C.ar    1  UNL1        0.2208
     22 N         139.3700  138.6955  159.9580 N.ar    1  UNL1       -0.2111
     23 C         140.0871  138.9926  158.6745 C.ar    1  UNL1        0.1147
     24 C         139.4783  139.9310  157.6750 C.ar    1  UNL1        0.0960
     25 CL        140.1954  140.2281  156.3915 Cl      1  UNL1       -0.0790
     26 C         138.1522  140.5722  157.9591 C.ar    1  UNL1        0.1138
     27 N         137.4352  140.2749  159.2426 N.ar    1  UNL1       -0.2111
     28 C         137.5434  141.5105  156.9597 C.ar    1  UNL1        0.1031
     29 C         136.2988  141.2610  156.1604 C.ar    1  UNL1        0.1196
     30 N         136.0585  142.4594  155.2908 N.ar    1  UNL1       -0.2248
     31 C         137.1545  143.4495  155.5527 C.ar    1  UNL1        0.1479
     32 C         137.4355  144.8092  154.9852 C.ar    1  UNL1        0.0374
     33 C         138.6341  145.5825  155.4492 C.ar    1  UNL1        0.0046
     34 C         139.5518  144.9960  156.4806 C.ar    1  UNL1        0.0191
     35 C         139.2708  143.6363  157.0481 C.ar    1  UNL1        0.0815
     36 N         138.0722  142.8630  156.5841 N.ar    1  UNL1       -0.2874
@<TRIPOS>BOND
     1    17    18    1
     2    18     1    1
     3     1     2   ar
     4     2     3   ar
     5     3     7    1
     6     7     8    1
     7     8     9    1
     8     9    10    1
     9    10    11    1
    10    11    12    1
    11    12    13    1
    12    13    14    1
    13    13    15    1
    14     3     4   ar
    15     4     5   ar
    16     5     6   ar
    17     6    19    1
    18    19    21    1
    19    21    22   ar
    20    22    23   ar
    21    23    24   ar
    22    24    25    1
    23    24    26   ar
    24    26    28    1
    25    28    29   ar
    26    29    30   ar
    27    30    31   ar
    28    31    32   ar
    29    32    33   ar
    30    33    34   ar
    31    34    35   ar
    32    35    36   ar
    33    26    27   ar
    34     6     1   ar
    35    27    21   ar
    36    14     7    1
    37    36    28   ar
    38    15     9    1
    39    36    31   ar
    40    15    16    1
    41    19    20    1
@<TRIPOS>MOLECULE
*****
 36 41 0 0 0
SMALL
GASTEIGER

@<TRIPOS>ATOM
      1 C         142.3788  144.3415  161.8168 C.ar    1  UNL1        0.1533
      2 C         141.4183  144.6831  160.7162 C.ar    1  UNL1        0.0527
      3 C         141.6210  144.1179  159.3416 C.ar    1  UNL1        0.0510
      4 C         142.7842  143.2113  159.0675 C.ar    1  UNL1        0.0160
      5 C         143.7445  142.8698  160.1679 C.ar    1  UNL1        0.0190
      6 C         143.5419  143.4349  161.5426 C.ar    1  UNL1        0.0850
      7 N         140.6606  144.4595  158.2413 N.pl3   1  UNL1       -0.3045
      8 C         140.6490  145.8415  157.6581 C.3     1  UNL1        0.1090
      9 C         139.6885  146.1831  156.5577 C.3     1  UNL1        0.1041
     10 C         138.7281  146.5248  155.4573 C.3     1  UNL1        0.1595
     11 O         137.7793  145.4843  154.9400 O.3     1  UNL1       -0.3508
     12 C         137.7911  144.1025  155.5232 C.3     1  UNL1        0.1595
     13 C         138.7515  143.7608  156.6236 C.3     1  UNL1        0.1041
     14 C         139.7119  143.4192  157.7240 C.3     1  UNL1        0.1090
     15 N         139.7002  144.8011  157.1409 N.3     1  UNL1       -0.2928
     16 H         140.6421  144.4332  157.0073 H       1  UNL1        0.1234
     17 C         140.8538  144.7454  163.8811 C.3     1  UNL1        0.2525
     18 O         142.1760  144.9066  163.1914 O.3     1  UNL1       -0.4701
     19 N         144.5023  143.0933  162.6430 N.pl3   1  UNL1       -0.2802
     20 H         145.2852  143.6667  162.8086 H       1  UNL1        0.1552
     21 C         144.2699  141.8781  163.4911 C.ar    1  UNL1        0.2208
     22 N         145.2027  140.7074  163.3956 N.ar    1  UNL1       -0.2111
     23 C         144.9703  139.4922  164.2437 C.ar    1  UNL1        0.1147
     24 C         143.8051  139.4477  165.1872 C.ar    1  UNL1        0.0960
     25 CL        143.5727  138.2325  166.0353 Cl      1  UNL1       -0.0790
     26 C         142.8722  140.6186  165.2827 C.ar    1  UNL1        0.1138
     27 N         143.1046  141.8337  164.4346 N.ar    1  UNL1       -0.2111
     28 C         141.7069  140.5741  166.2262 C.ar    1  UNL1        0.1031
     29 C         141.5316  141.4217  167.4512 C.ar    1  UNL1        0.1196
     30 N         140.2287  141.0457  168.0924 N.ar    1  UNL1       -0.2248
     31 C         139.5989  139.9657  167.2637 C.ar    1  UNL1        0.1479
     32 C         138.3115  139.2100  167.4103 C.ar    1  UNL1        0.0374
     33 C         137.9377  138.1628  166.4035 C.ar    1  UNL1        0.0046
     34 C         138.8513  137.8714  165.2501 C.ar    1  UNL1        0.0191
     35 C         140.1387  138.6271  165.1034 C.ar    1  UNL1        0.0815
     36 N         140.5125  139.6742  166.1103 N.ar    1  UNL1       -0.2874
@<TRIPOS>BOND
     1    17    18    1
     2    18     1    1
     3     1     2   ar
     4     2     3   ar
     5     3     7    1
     6     7     8    1
     7     8     9    1
     8     9    10    1
     9    10    11    1
    10    11    12    1
    11    12    13    1
    12    13    14    1
    13    13    15    1
    14     3     4   ar
    15     4     5   ar
    16     5     6   ar
    17     6    19    1
    18    19    21    1
    19    21    22   ar
    20    22    23   ar
    21    23    24   ar
    22    24    25    1
    23    24    26   ar
    24    26    28    1
    25    28    29   ar
    26    29    30   ar
    27    30    31   ar
    28    31    32   ar
    29    32    33   ar
    30    33    34   ar
    31    34    35   ar
    32    35    36   ar
    33    26    27   ar
    34     6     1   ar
    35    27    21   ar
    36    14     7    1
    37    36    28   ar
    38    15     9    1
    39    36    31   ar
    40    15    16    1
    41    19    20    1
@<TRIPOS>MOLECULE
*****
 36 41 0 0 0
SMALL
GASTEIGER

@<TRIPOS>ATOM
      1 C         137.9246  140.5679  163.5974 C.ar    1  UNL1        0.1533
      2 C         138.5758  140.7832  164.9315 C.ar    1  UNL1        0.0527
      3 C         139.3845  139.6856  165.5571 C.ar    1  UNL1        0.0510
      4 C         139.5420  138.3729  164.8488 C.ar    1  UNL1        0.0160
      5 C         138.8908  138.1576  163.5148 C.ar    1  UNL1        0.0190
      6 C         138.0821  139.2551  162.8890 C.ar    1  UNL1        0.0850
      7 N         140.0357  139.9010  166.8911 N.pl3   1  UNL1       -0.3045
      8 C         141.5206  140.0945  166.9783 C.3     1  UNL1        0.1090
      9 C         142.1719  140.3098  168.3123 C.3     1  UNL1        0.1041
     10 C         142.8231  140.5252  169.6463 C.3     1  UNL1        0.1595
     11 O         141.9894  140.5470  170.8931 O.3     1  UNL1       -0.3508
     12 C         140.5045  140.3534  170.8058 C.3     1  UNL1        0.1595
     13 C         139.8533  140.1381  169.4719 C.3     1  UNL1        0.1041
     14 C         139.2020  139.9228  168.1379 C.3     1  UNL1        0.1090
     15 N         140.6869  140.1163  168.2251 N.3     1  UNL1       -0.2928
     16 H         140.3290  140.8541  167.6186 H       1  UNL1        0.1234
     17 C         137.7928  142.9136  162.4881 C.3     1  UNL1        0.2525
     18 O         137.1159  141.6655  162.9718 O.3     1  UNL1       -0.4701
     19 N         137.4309  139.0398  161.5550 N.pl3   1  UNL1       -0.2802
     20 H         136.5381  138.6281  161.5038 H       1  UNL1        0.1552
     21 C         138.1400  139.4518  160.2991 C.ar    1  UNL1        0.2208
     22 N         137.7557  140.7241  159.6037 N.ar    1  UNL1       -0.2111
     23 C         138.4647  141.1360  158.3477 C.ar    1  UNL1        0.1147
     24 C         139.5581  140.2756  157.7871 C.ar    1  UNL1        0.0960
     25 CL        140.2672  140.6876  156.5311 Cl      1  UNL1       -0.0790
     26 C         139.9424  139.0033  158.4825 C.ar    1  UNL1        0.1138
     27 N         139.2334  138.5914  159.7384 N.ar    1  UNL1       -0.2111
     28 C         141.0358  138.1429  157.9218 C.ar    1  UNL1        0.1031
     29 C         142.3973  137.9463  158.5198 C.ar    1  UNL1        0.1196
     30 N         143.1625  137.0100  157.6323 N.ar    1  UNL1       -0.2248
     31 C         142.2740  136.6279  156.4858 C.ar    1  UNL1        0.1479
     32 C         142.4919  135.7328  155.3021 C.ar    1  UNL1        0.0374
     33 C         141.3954  135.5379  154.2972 C.ar    1  UNL1        0.0046
     34 C         140.0810  136.2381  154.4762 C.ar    1  UNL1        0.0191
     35 C         139.8631  137.1332  155.6600 C.ar    1  UNL1        0.0815
     36 N         140.9595  137.3280  156.6648 N.ar    1  UNL1       -0.2874
@<TRIPOS>BOND
     1    17    18    1
     2    18     1    1
     3     1     2   ar
     4     2     3   ar
     5     3     7    1
     6     7     8    1
     7     8     9    1
     8     9    10    1
     9    10    11    1
    10    11    12    1
    11    12    13    1
    12    13    14    1
    13    13    15    1
    14     3     4   ar
    15     4     5   ar
    16     5     6   ar
    17     6    19    1
    18    19    21    1
    19    21    22   ar
    20    22    23   ar
    21    23    24   ar
    22    24    25    1
    23    24    26   ar
    24    26    28    1
    25    28    29   ar
    26    29    30   ar
    27    30    31   ar
    28    31    32   ar
    29    32    33   ar
    30    33    34   ar
    31    34    35   ar
    32    35    36   ar
    33    26    27   ar
    34     6     1   ar
    35    27    21   ar
    36    14     7    1
    37    36    28   ar
    38    15     9    1
    39    36    31   ar
    40    15    16    1
    41    19    20    1
@<TRIPOS>MOLECULE
*****
 36 41 0 0 0
SMALL
GASTEIGER

@<TRIPOS>ATOM
      1 C         137.9184  140.5369  163.4593 C.ar    1  UNL1        0.1533
      2 C         138.5769  140.7612  164.7883 C.ar    1  UNL1        0.0527
      3 C         139.3419  139.6496  165.4434 C.ar    1  UNL1        0.0510
      4 C         139.4484  138.3137  164.7696 C.ar    1  UNL1        0.0160
      5 C         138.7899  138.0894  163.4407 C.ar    1  UNL1        0.0190
      6 C         138.0248  139.2010  162.7855 C.ar    1  UNL1        0.0850
      7 N         140.0003  139.8740  166.7723 N.pl3   1  UNL1       -0.3045
      8 C         141.4834  140.0856  166.8482 C.3     1  UNL1        0.1090
      9 C         142.1420  140.3100  168.1772 C.3     1  UNL1        0.1041
     10 C         142.8005  140.5344  169.5060 C.3     1  UNL1        0.1595
     11 O         141.9759  140.5472  170.7591 O.3     1  UNL1       -0.3508
     12 C         140.4929  140.3356  170.6831 C.3     1  UNL1        0.1595
     13 C         139.8344  140.1112  169.3542 C.3     1  UNL1        0.1041
     14 C         139.1758  139.8868  168.0253 C.3     1  UNL1        0.1090
     15 N         140.6589  140.0984  168.1012 N.3     1  UNL1       -0.2928
     16 H         140.2875  140.8313  167.4968 H       1  UNL1        0.1234
     17 C         137.8587  142.9108  162.4052 C.3     1  UNL1        0.2525
     18 O         137.1534  141.6485  162.8042 O.3     1  UNL1       -0.4701
     19 N         137.3664  138.9766  161.4566 N.pl3   1  UNL1       -0.2802
     20 H         136.4534  138.6105  161.4152 H       1  UNL1        0.1552
     21 C         138.0988  139.3101  160.1908 C.ar    1  UNL1        0.2208
     22 N         139.4638  138.7402  159.9418 N.ar    1  UNL1       -0.2111
     23 C         140.1963  139.0737  158.6759 C.ar    1  UNL1        0.1147
     24 C         139.5637  139.9769  157.6591 C.ar    1  UNL1        0.0960
     25 CL        140.2961  140.3104  156.3933 Cl      1  UNL1       -0.0790
     26 C         138.1986  140.5468  157.9081 C.ar    1  UNL1        0.1138
     27 N         137.4662  140.2133  159.1739 N.ar    1  UNL1       -0.2111
     28 C         137.5660  141.4501  156.8913 C.ar    1  UNL1        0.1031
     29 C         137.5390  142.9491  156.9391 C.ar    1  UNL1        0.1196
     30 N         136.8057  143.4383  155.7254 N.ar    1  UNL1       -0.2248
     31 C         136.3795  142.2417  154.9276 C.ar    1  UNL1        0.1479
     32 C         135.6242  142.1123  153.6381 C.ar    1  UNL1        0.0374
     33 C         135.3389  140.7540  153.0692 C.ar    1  UNL1        0.0046
     34 C         135.8088  139.5252  153.7898 C.ar    1  UNL1        0.0191
     35 C         136.5641  139.6546  155.0792 C.ar    1  UNL1        0.0815
     36 N         136.8494  141.0129  155.6482 N.ar    1  UNL1       -0.2874
@<TRIPOS>BOND
     1    17    18    1
     2    18     1    1
     3     1     2   ar
     4     2     3   ar
     5     3     7    1
     6     7     8    1
     7     8     9    1
     8     9    10    1
     9    10    11    1
    10    11    12    1
    11    12    13    1
    12    13    14    1
    13    13    15    1
    14     3     4   ar
    15     4     5   ar
    16     5     6   ar
    17     6    19    1
    18    19    21    1
    19    21    22   ar
    20    22    23   ar
    21    23    24   ar
    22    24    25    1
    23    24    26   ar
    24    26    28    1
    25    28    29   ar
    26    29    30   ar
    27    30    31   ar
    28    31    32   ar
    29    32    33   ar
    30    33    34   ar
    31    34    35   ar
    32    35    36   ar
    33    26    27   ar
    34     6     1   ar
    35    27    21   ar
    36    14     7    1
    37    36    28   ar
    38    15     9    1
    39    36    31   ar
    40    15    16    1
    41    19    20    1
@<TRIPOS>MOLECULE
*****
 36 41 0 0 0
SMALL
GASTEIGER

@<TRIPOS>ATOM
      1 C         137.9073  140.6990  163.5383 C.ar    1  UNL1        0.1533
      2 C         138.5527  140.8637  164.8824 C.ar    1  UNL1        0.0527
      3 C         139.3915  139.7583  165.4520 C.ar    1  UNL1        0.0510
      4 C         139.5849  138.4882  164.6777 C.ar    1  UNL1        0.0160
      5 C         138.9395  138.3236  163.3337 C.ar    1  UNL1        0.0190
      6 C         138.1007  139.4290  162.7640 C.ar    1  UNL1        0.0850
      7 N         140.0369  139.9230  166.7960 N.pl3   1  UNL1       -0.3045
      8 C         139.1940  139.9302  168.0368 C.3     1  UNL1        0.1090
      9 C         139.8394  140.0949  169.3809 C.3     1  UNL1        0.1041
     10 C         140.4847  140.2596  170.7250 C.3     1  UNL1        0.1595
     11 O         141.9729  140.4171  170.8282 O.3     1  UNL1       -0.3508
     12 C         142.8156  140.4099  169.5873 C.3     1  UNL1        0.1595
     13 C         142.1703  140.2452  168.2433 C.3     1  UNL1        0.1041
     14 C         141.5250  140.0805  166.8993 C.3     1  UNL1        0.1090
     15 N         140.6822  140.0877  168.1401 N.3     1  UNL1       -0.2928
     16 H         140.5120  139.1966  167.6737 H       1  UNL1        0.1234
     17 C         137.7044  143.1087  162.5883 C.3     1  UNL1        0.2525
     18 O         137.0685  141.8045  162.9686 O.3     1  UNL1       -0.4701
     19 N         137.4553  139.2643  161.4200 N.pl3   1  UNL1       -0.2802
     20 H         136.6852  138.6601  161.3144 H       1  UNL1        0.1552
     21 C         137.9831  140.0202  160.2368 C.ar    1  UNL1        0.2208
     22 N         137.1788  140.0915  158.9727 N.ar    1  UNL1       -0.2111
     23 C         137.7066  140.8474  157.7895 C.ar    1  UNL1        0.1147
     24 C         139.0388  141.5320  157.8704 C.ar    1  UNL1        0.0960
     25 CL        139.5667  142.2879  156.6871 Cl      1  UNL1       -0.0790
     26 C         139.8433  141.4606  159.1345 C.ar    1  UNL1        0.1138
     27 N         139.3154  140.7048  160.3176 N.ar    1  UNL1       -0.2111
     28 C         141.1755  142.1452  159.2153 C.ar    1  UNL1        0.1031
     29 C         141.4928  143.3632  160.0312 C.ar    1  UNL1        0.1196
     30 N         142.9377  143.7027  159.8146 N.ar    1  UNL1       -0.2248
     31 C         143.5134  142.6945  158.8648 C.ar    1  UNL1        0.1479
     32 C         144.8887  142.5286  158.2894 C.ar    1  UNL1        0.0374
     33 C         145.1747  141.4001  157.3436 C.ar    1  UNL1        0.0046
     34 C         144.0856  140.4375  156.9732 C.ar    1  UNL1        0.0191
     35 C         142.7104  140.6034  157.5486 C.ar    1  UNL1        0.0815
     36 N         142.4243  141.7319  158.4944 N.ar    1  UNL1       -0.2874
@<TRIPOS>BOND
     1    17    18    1
     2    18     1    1
     3     1     2   ar
     4     2     3   ar
     5     3     7    1
     6     7     8    1
     7     8     9    1
     8     9    10    1
     9    10    11    1
    10    11    12    1
    11    12    13    1
    12    13    14    1
    13    13    15    1
    14     3     4   ar
    15     4     5   ar
    16     5     6   ar
    17     6    19    1
    18    19    21    1
    19    21    22   ar
    20    22    23   ar
    21    23    24   ar
    22    24    25    1
    23    24    26   ar
    24    26    28    1
    25    28    29   ar
    26    29    30   ar
    27    30    31   ar
    28    31    32   ar
    29    32    33   ar
    30    33    34   ar
    31    34    35   ar
    32    35    36   ar
    33    26    27   ar
    34     6     1   ar
    35    27    21   ar
    36    14     7    1
    37    36    28   ar
    38    15     9    1
    39    36    31   ar
    40    15    16    1
    41    19    20    1
@<TRIPOS>MOLECULE
*****
 36 41 0 0 0
SMALL
GASTEIGER

@<TRIPOS>ATOM
      1 C         140.4325  138.4004  164.0035 C.ar    1  UNL1        0.1533
      2 C         140.7416  139.0946  165.2968 C.ar    1  UNL1        0.0527
      3 C         139.7254  140.0043  165.9212 C.ar    1  UNL1        0.0510
      4 C         138.4002  140.2198  165.2523 C.ar    1  UNL1        0.0160
      5 C         138.0912  139.5255  163.9591 C.ar    1  UNL1        0.0190
      6 C         139.1073  138.6158  163.3346 C.ar    1  UNL1        0.0850
      7 N         140.0344  140.6985  167.2145 N.pl3   1  UNL1       -0.3045
      8 C         140.3321  142.1686  167.2240 C.3     1  UNL1        0.1090
      9 C         140.6413  142.8629  168.5173 C.3     1  UNL1        0.1041
     10 C         140.9503  143.5571  169.8106 C.3     1  UNL1        0.1595
     11 O         140.9617  142.7812  171.0943 O.3     1  UNL1       -0.3508
     12 C         140.6640  141.3111  171.0846 C.3     1  UNL1        0.1595
     13 C         140.3549  140.6168  169.7914 C.3     1  UNL1        0.1041
     14 C         140.0458  139.9226  168.4982 C.3     1  UNL1        0.1090
     15 N         140.3435  141.3927  168.5077 N.3     1  UNL1       -0.2928
     16 H         139.4124  141.2835  168.1058 H       1  UNL1        0.1234
     17 C         142.6507  138.0682  162.6922 C.3     1  UNL1        0.2525
     18 O         141.4487  137.4907  163.3791 O.3     1  UNL1       -0.4701
     19 N         138.7983  137.9217  162.0413 N.pl3   1  UNL1       -0.2802
     20 H         138.4584  136.9977  162.0476 H       1  UNL1        0.1552
     21 C         139.0070  138.6352  160.7385 C.ar    1  UNL1        0.2208
     22 N         137.9639  139.5846  160.2279 N.ar    1  UNL1       -0.2111
     23 C         138.1727  140.2981  158.9251 C.ar    1  UNL1        0.1147
     24 C         139.4244  140.0622  158.1329 C.ar    1  UNL1        0.0960
     25 CL        139.6331  140.7757  156.8301 Cl      1  UNL1       -0.0790
     26 C         140.4675  139.1128  158.6436 C.ar    1  UNL1        0.1138
     27 N         140.2587  138.3993  159.9464 N.ar    1  UNL1       -0.2111
     28 C         141.7192  138.8769  157.8514 C.ar    1  UNL1        0.1031
     29 C         142.9723  139.6987  157.9173 C.ar    1  UNL1        0.1196
     30 N         143.9651  139.1075  156.9609 N.ar    1  UNL1       -0.2248
     31 C         143.3256  137.9203  156.3039 C.ar    1  UNL1        0.1479
     32 C         143.8279  136.9506  155.2756 C.ar    1  UNL1        0.0374
     33 C         142.9422  135.8385  154.7977 C.ar    1  UNL1        0.0046
     34 C         141.5541  135.6959  155.3481 C.ar    1  UNL1        0.0191
     35 C         141.0518  136.6656  156.3764 C.ar    1  UNL1        0.0815
     36 N         141.9376  137.7778  156.8543 N.ar    1  UNL1       -0.2874
@<TRIPOS>BOND
     1    17    18    1
     2    18     1    1
     3     1     2   ar
     4     2     3   ar
     5     3     7    1
     6     7     8    1
     7     8     9    1
     8     9    10    1
     9    10    11    1
    10    11    12    1
    11    12    13    1
    12    13    14    1
    13    13    15    1
    14     3     4   ar
    15     4     5   ar
    16     5     6   ar
    17     6    19    1
    18    19    21    1
    19    21    22   ar
    20    22    23   ar
    21    23    24   ar
    22    24    25    1
    23    24    26   ar
    24    26    28    1
    25    28    29   ar
    26    29    30   ar
    27    30    31   ar
    28    31    32   ar
    29    32    33   ar
    30    33    34   ar
    31    34    35   ar
    32    35    36   ar
    33    26    27   ar
    34     6     1   ar
    35    27    21   ar
    36    14     7    1
    37    36    28   ar
    38    15     9    1
    39    36    31   ar
    40    15    16    1
    41    19    20    1
@<TRIPOS>MOLECULE
*****
 36 41 0 0 0
SMALL
GASTEIGER

@<TRIPOS>ATOM
      1 C         138.6554  140.0805  159.3520 C.ar    1  UNL1        0.1533
      2 C         139.2992  138.8765  158.7304 C.ar    1  UNL1        0.0527
      3 C         140.3999  139.0492  157.7260 C.ar    1  UNL1        0.0510
      4 C         140.8567  140.4256  157.3432 C.ar    1  UNL1        0.0160
      5 C         140.2129  141.6295  157.9647 C.ar    1  UNL1        0.0190
      6 C         139.1123  141.4569  158.9691 C.ar    1  UNL1        0.0850
      7 N         141.0436  137.8453  157.1046 N.pl3   1  UNL1       -0.3045
      8 C         140.3242  137.0785  156.0347 C.3     1  UNL1        0.1090
      9 C         140.9679  135.8746  155.4132 C.3     1  UNL1        0.1041
     10 C         141.6116  134.6707  154.7916 C.3     1  UNL1        0.1595
     11 O         142.9747  134.2336  155.2400 O.3     1  UNL1       -0.3508
     12 C         143.6940  135.0004  156.3098 C.3     1  UNL1        0.1595
     13 C         143.0503  136.2043  156.9314 C.3     1  UNL1        0.1041
     14 C         142.4066  137.4082  157.5529 C.3     1  UNL1        0.1090
     15 N         141.6872  136.6414  156.4830 N.3     1  UNL1       -0.2928
     16 H         141.7813  137.5995  156.1459 H       1  UNL1        0.1234
     17 C         137.8773  139.4727  161.7551 C.3     1  UNL1        0.2525
     18 O         137.5547  139.9078  160.3563 O.3     1  UNL1       -0.4701
     19 N         138.4685  142.6608  159.5906 N.pl3   1  UNL1       -0.2802
     20 H         137.8554  143.2198  159.0606 H       1  UNL1        0.1552
     21 C         138.7590  143.0130  161.0194 C.ar    1  UNL1        0.2208
     22 N         137.6303  143.2108  161.9874 N.ar    1  UNL1       -0.2111
     23 C         137.9207  143.5631  163.4162 C.ar    1  UNL1        0.1147
     24 C         139.3398  143.7175  163.8771 C.ar    1  UNL1        0.0960
     25 CL        139.6302  144.0698  165.3059 Cl      1  UNL1       -0.0790
     26 C         140.4685  143.5197  162.9090 C.ar    1  UNL1        0.1138
     27 N         140.1780  143.1675  161.4802 N.ar    1  UNL1       -0.2111
     28 C         141.8876  143.6742  163.3698 C.ar    1  UNL1        0.1031
     29 C         142.5493  144.9591  163.7713 C.ar    1  UNL1        0.1196
     30 N         143.9648  144.6498  164.1597 N.ar    1  UNL1       -0.2248
     31 C         144.1778  143.1738  163.9983 C.ar    1  UNL1        0.1479
     32 C         145.3750  142.3010  164.2327 C.ar    1  UNL1        0.0374
     33 C         145.2883  140.8252  163.9790 C.ar    1  UNL1        0.0046
     34 C         144.0045  140.2222  163.4908 C.ar    1  UNL1        0.0191
     35 C         142.8074  141.0950  163.2564 C.ar    1  UNL1        0.0815
     36 N         142.8941  142.5708  163.5101 N.ar    1  UNL1       -0.2874
@<TRIPOS>BOND
     1    17    18    1
     2    18     1    1
     3     1     2   ar
     4     2     3   ar
     5     3     7    1
     6     7     8    1
     7     8     9    1
     8     9    10    1
     9    10    11    1
    10    11    12    1
    11    12    13    1
    12    13    14    1
    13    13    15    1
    14     3     4   ar
    15     4     5   ar
    16     5     6   ar
    17     6    19    1
    18    19    21    1
    19    21    22   ar
    20    22    23   ar
    21    23    24   ar
    22    24    25    1
    23    24    26   ar
    24    26    28    1
    25    28    29   ar
    26    29    30   ar
    27    30    31   ar
    28    31    32   ar
    29    32    33   ar
    30    33    34   ar
    31    34    35   ar
    32    35    36   ar
    33    26    27   ar
    34     6     1   ar
    35    27    21   ar
    36    14     7    1
    37    36    28   ar
    38    15     9    1
    39    36    31   ar
    40    15    16    1
    41    19    20    1
@<TRIPOS>MOLECULE
*****
 36 41 0 0 0
SMALL
GASTEIGER

@<TRIPOS>ATOM
      1 C         142.1715  138.3483  164.0020 C.ar    1  UNL1        0.1533
      2 C         141.7481  138.9906  165.2898 C.ar    1  UNL1        0.0527
      3 C         142.5995  140.0581  165.9109 C.ar    1  UNL1        0.0510
      4 C         143.8741  140.4833  165.2443 C.ar    1  UNL1        0.0160
      5 C         144.2975  139.8410  163.9565 C.ar    1  UNL1        0.0190
      6 C         143.4462  138.7735  163.3354 C.ar    1  UNL1        0.0850
      7 N         142.1761  140.7003  167.1986 N.pl3   1  UNL1       -0.3045
      8 C         141.3252  141.9354  167.1764 C.3     1  UNL1        0.1090
      9 C         140.9017  142.5777  168.4642 C.3     1  UNL1        0.1041
     10 C         140.4782  143.2199  169.7519 C.3     1  UNL1        0.1595
     11 O         140.9057  142.6270  171.0618 O.3     1  UNL1       -0.3508
     12 C         141.7566  141.3920  171.0839 C.3     1  UNL1        0.1595
     13 C         142.1801  140.7497  169.7962 C.3     1  UNL1        0.1041
     14 C         142.6035  140.1074  168.5085 C.3     1  UNL1        0.1090
     15 N         141.7526  141.3425  168.4863 N.3     1  UNL1       -0.2928
     16 H         141.2330  140.6181  167.9908 H       1  UNL1        0.1234
     17 C         139.9701  137.6265  162.8260 C.3     1  UNL1        0.2525
     18 O         141.3202  137.2808  163.3809 O.3     1  UNL1       -0.4701
     19 N         143.8696  138.1313  162.0476 N.pl3   1  UNL1       -0.2802
     20 H         144.3871  137.2940  162.0621 H       1  UNL1        0.1552
     21 C         143.5044  138.7649  160.7380 C.ar    1  UNL1        0.2208
     22 N         144.0213  140.1307  160.3956 N.ar    1  UNL1       -0.2111
     23 C         143.6562  140.7643  159.0859 C.ar    1  UNL1        0.1147
     24 C         142.7742  140.0319  158.1186 C.ar    1  UNL1        0.0960
     25 CL        142.4091  140.6655  156.8089 Cl      1  UNL1       -0.0790
     26 C         142.2573  138.6660  158.4610 C.ar    1  UNL1        0.1138
     27 N         142.6224  138.0325  159.7706 N.ar    1  UNL1       -0.2111
     28 C         141.3753  137.9337  157.4936 C.ar    1  UNL1        0.1031
     29 C         139.8832  138.0529  157.3966 C.ar    1  UNL1        0.1196
     30 N         139.4163  137.1465  156.2965 N.ar    1  UNL1       -0.2248
     31 C         140.6198  136.4670  155.7136 C.ar    1  UNL1        0.1479
     32 C         140.7697  135.4681  154.6046 C.ar    1  UNL1        0.0374
     33 C         142.1303  134.9557  154.2356 C.ar    1  UNL1        0.0046
     34 C         143.3410  135.4422  154.9755 C.ar    1  UNL1        0.0191
     35 C         143.1911  136.4411  156.0844 C.ar    1  UNL1        0.0815
     36 N         141.8306  136.9535  156.4534 N.ar    1  UNL1       -0.2874
@<TRIPOS>BOND
     1    17    18    1
     2    18     1    1
     3     1     2   ar
     4     2     3   ar
     5     3     7    1
     6     7     8    1
     7     8     9    1
     8     9    10    1
     9    10    11    1
    10    11    12    1
    11    12    13    1
    12    13    14    1
    13    13    15    1
    14     3     4   ar
    15     4     5   ar
    16     5     6   ar
    17     6    19    1
    18    19    21    1
    19    21    22   ar
    20    22    23   ar
    21    23    24   ar
    22    24    25    1
    23    24    26   ar
    24    26    28    1
    25    28    29   ar
    26    29    30   ar
    27    30    31   ar
    28    31    32   ar
    29    32    33   ar
    30    33    34   ar
    31    34    35   ar
    32    35    36   ar
    33    26    27   ar
    34     6     1   ar
    35    27    21   ar
    36    14     7    1
    37    36    28   ar
    38    15     9    1
    39    36    31   ar
    40    15    16    1
    41    19    20    1
@<TRIPOS>MOLECULE
*****
 36 41 0 0 0
SMALL
GASTEIGER

@<TRIPOS>ATOM
      1 C         143.8707  139.6994  164.4391 C.ar    1  UNL1        0.1533
      2 C         143.4774  140.2657  165.7713 C.ar    1  UNL1        0.0527
      3 C         142.1413  139.9294  166.3644 C.ar    1  UNL1        0.0510
      4 C         141.1984  139.0267  165.6252 C.ar    1  UNL1        0.0160
      5 C         141.5917  138.4605  164.2931 C.ar    1  UNL1        0.0190
      6 C         142.9278  138.7968  163.7000 C.ar    1  UNL1        0.0850
      7 N         141.7481  140.4957  167.6965 N.pl3   1  UNL1       -0.3045
      8 C         142.3797  139.9692  168.9511 C.3     1  UNL1        0.1090
      9 C         141.9865  140.5355  170.2834 C.3     1  UNL1        0.1041
     10 C         141.5934  141.1018  171.6156 C.3     1  UNL1        0.1595
     11 O         140.5686  142.1945  171.6931 O.3     1  UNL1       -0.3508
     12 C         139.9371  142.7208  170.4385 C.3     1  UNL1        0.1595
     13 C         140.3302  142.1546  169.1063 C.3     1  UNL1        0.1041
     14 C         140.7234  141.5883  167.7741 C.3     1  UNL1        0.1090
     15 N         141.3549  141.0619  169.0287 N.3     1  UNL1       -0.2928
     16 H         142.1127  141.4100  168.4413 H       1  UNL1        0.1234
     17 C         145.5853  141.4686  163.6145 C.3     1  UNL1        0.2525
     18 O         145.2068  140.0358  163.8461 O.3     1  UNL1       -0.4701
     19 N         143.3210  138.2305  162.3678 N.pl3   1  UNL1       -0.2802
     20 H         143.8325  137.3905  162.3216 H       1  UNL1        0.1552
     21 C         142.9351  138.9439  161.1061 C.ar    1  UNL1        0.2208
     22 N         142.8341  138.1849  159.8162 N.ar    1  UNL1       -0.2111
     23 C         142.4481  138.8983  158.5545 C.ar    1  UNL1        0.1147
     24 C         142.1631  140.3708  158.5826 C.ar    1  UNL1        0.0960
     25 CL        141.7771  141.0842  157.3208 Cl      1  UNL1       -0.0790
     26 C         142.2641  141.1298  159.8725 C.ar    1  UNL1        0.1138
     27 N         142.6500  140.4163  161.1342 N.ar    1  UNL1       -0.2111
     28 C         141.9790  142.6022  159.9006 C.ar    1  UNL1        0.1031
     29 C         142.6063  143.6387  159.0162 C.ar    1  UNL1        0.1196
     30 N         142.0316  144.9737  159.3871 N.ar    1  UNL1       -0.2248
     31 C         141.0491  144.7622  160.5007 C.ar    1  UNL1        0.1479
     32 C         140.1799  145.7149  161.2667 C.ar    1  UNL1        0.0374
     33 C         139.2782  145.2019  162.3500 C.ar    1  UNL1        0.0046
     34 C         139.2457  143.7363  162.6674 C.ar    1  UNL1        0.0191
     35 C         140.1149  142.7836  161.9014 C.ar    1  UNL1        0.0815
     36 N         141.0166  143.2965  160.8180 N.ar    1  UNL1       -0.2874
@<TRIPOS>BOND
     1    17    18    1
     2    18     1    1
     3     1     2   ar
     4     2     3   ar
     5     3     7    1
     6     7     8    1
     7     8     9    1
     8     9    10    1
     9    10    11    1
    10    11    12    1
    11    12    13    1
    12    13    14    1
    13    13    15    1
    14     3     4   ar
    15     4     5   ar
    16     5     6   ar
    17     6    19    1
    18    19    21    1
    19    21    22   ar
    20    22    23   ar
    21    23    24   ar
    22    24    25    1
    23    24    26   ar
    24    26    28    1
    25    28    29   ar
    26    29    30   ar
    27    30    31   ar
    28    31    32   ar
    29    32    33   ar
    30    33    34   ar
    31    34    35   ar
    32    35    36   ar
    33    26    27   ar
    34     6     1   ar
    35    27    21   ar
    36    14     7    1
    37    36    28   ar
    38    15     9    1
    39    36    31   ar
    40    15    16    1
    41    19    20    1
