@<TRIPOS>MOLECULE
*****
 37 40 0 0 0
SMALL
GASTEIGER

@<TRIPOS>ATOM
      1 C         139.1183  144.3808  162.7625 C.2     1  UNL1        0.2290
      2 O         137.8257  145.0634  162.4258 O.2     1  UNL1       -0.2745
      3 N         140.3800  144.7714  162.0516 N.am    1  UNL1       -0.2586
      4 C         138.5142  138.7964  166.7248 C.3     1  UNL1        0.0948
      5 C         139.2414  140.0884  166.9529 C.2     1  UNL1        0.2261
      6 O         139.9993  140.3072  168.2286 O.2     1  UNL1       -0.2749
      7 N         139.2106  141.1615  165.9053 N.am    1  UNL1       -0.2795
      8 C         138.4526  140.9427  164.6295 C.3     1  UNL1        0.0939
      9 C         138.4219  142.0158  163.5819 C.3     1  UNL1        0.0306
     10 C         139.1490  143.3077  163.8101 C.3     1  UNL1        0.0804
     11 C         139.9070  143.5265  165.0858 C.3     1  UNL1        0.0306
     12 C         139.9378  142.4534  166.1334 C.3     1  UNL1        0.0939
     13 C         141.6726  144.0888  162.3883 C.ar    1  UNL1        0.0546
     14 C         142.6925  144.7899  163.2357 C.ar    1  UNL1        0.0146
     15 C         143.9850  144.1074  163.5724 C.ar    1  UNL1       -0.0021
     16 C         144.2578  142.7236  163.0616 C.ar    1  UNL1       -0.0112
     17 C         145.5504  142.0411  163.3983 C.3     1  UNL1        0.0319
     18 C         143.2379  142.0225  162.2141 C.ar    1  UNL1        0.0549
     19 CL        143.5106  140.6388  161.7033 Cl      1  UNL1       -0.0825
     20 C         141.9453  142.7051  161.8775 C.ar    1  UNL1        0.0260
     21 C         140.3492  145.8445  161.0040 C.3     1  UNL1        0.0996
     22 C         140.8910  145.5695  159.6325 C.3     1  UNL1        0.0392
     23 C         140.1096  144.7211  158.6736 C.3     1  UNL1        0.0740
     24 N         139.9428  143.2535  158.9347 N.3     1  UNL1       -0.2703
     25 C         138.7128  142.7504  159.6304 C.3     1  UNL1        0.0897
     26 C         138.5460  141.2828  159.8916 C.3     1  UNL1        0.0899
     27 N         139.6093  140.3182  159.4570 N.3     1  UNL1       -0.2665
     28 C         140.8394  140.8211  158.7613 C.3     1  UNL1        0.0899
     29 C         141.0061  142.2888  158.5002 C.3     1  UNL1        0.0897
     30 C         139.4426  138.8505  159.7182 C.3     1  UNL1        0.0992
     31 C         139.8408  138.2748  161.0448 C.ar    1  UNL1       -0.0060
     32 C         138.7975  138.0014  162.0873 C.ar    1  UNL1       -0.0006
     33 C         139.1957  137.4257  163.4139 C.ar    1  UNL1        0.0294
     34 C         140.6371  137.1234  163.6981 C.ar    1  UNL1        0.1401
     35 F         141.0353  136.5476  165.0248 F       1  UNL1       -0.2042
     36 C         141.6804  137.3968  162.6556 C.ar    1  UNL1        0.0294
     37 C         141.2823  137.9725  161.3290 C.ar    1  UNL1       -0.0006
@<TRIPOS>BOND
     1     4     5    1
     2     5     6    2
     3     5     7   am
     4     7     8    1
     5     8     9    1
     6     9    10    1
     7    10     1    1
     8     1     2    2
     9     1     3   am
    10     3    21    1
    11    21    22    1
    12    22    23    1
    13    23    24    1
    14    24    25    1
    15    25    26    1
    16    26    27    1
    17    27    30    1
    18    30    31    1
    19    31    32   ar
    20    32    33   ar
    21    33    34   ar
    22    34    35    1
    23    34    36   ar
    24    36    37   ar
    25    27    28    1
    26    28    29    1
    27     3    13    1
    28    13    14   ar
    29    14    15   ar
    30    15    16   ar
    31    16    17    1
    32    16    18   ar
    33    18    19    1
    34    18    20   ar
    35    10    11    1
    36    11    12    1
    37    12     7    1
    38    29    24    1
    39    20    13   ar
    40    37    31   ar
@<TRIPOS>MOLECULE
*****
 37 40 0 0 0
SMALL
GASTEIGER

@<TRIPOS>ATOM
      1 C         138.8717  138.6765  164.8702 C.2     1  UNL1        0.2290
      2 O         138.4643  137.2348  164.7971 O.2     1  UNL1       -0.2745
      3 N         138.5817  139.5969  163.7219 N.am    1  UNL1       -0.2586
      4 C         143.1511  140.9386  169.7507 C.3     1  UNL1        0.0948
      5 C         141.6616  140.7617  169.7557 C.2     1  UNL1        0.2261
      6 O         140.8696  141.1060  170.9821 O.2     1  UNL1       -0.2749
      7 N         140.9641  140.2404  168.5343 N.am    1  UNL1       -0.2795
      8 C         141.7562  139.8960  167.3079 C.3     1  UNL1        0.0939
      9 C         141.0587  139.3747  166.0866 C.3     1  UNL1        0.0306
     10 C         139.5692  139.1978  166.0916 C.3     1  UNL1        0.0804
     11 C         138.7772  139.5422  167.3179 C.3     1  UNL1        0.0306
     12 C         139.4747  140.0634  168.5393 C.3     1  UNL1        0.0939
     13 C         138.9891  141.0387  163.7949 C.ar    1  UNL1        0.0546
     14 C         140.3159  141.4720  163.2452 C.ar    1  UNL1        0.0146
     15 C         140.7233  142.9137  163.3182 C.ar    1  UNL1       -0.0021
     16 C         139.8040  143.9223  163.9410 C.ar    1  UNL1       -0.0112
     17 C         140.2115  145.3640  164.0140 C.3     1  UNL1        0.0319
     18 C         138.4773  143.4891  164.4907 C.ar    1  UNL1        0.0549
     19 CL        137.5581  144.4976  165.1134 Cl      1  UNL1       -0.0825
     20 C         138.0699  142.0473  164.4176 C.ar    1  UNL1        0.0260
     21 C         137.8842  139.0756  162.5005 C.3     1  UNL1        0.0996
     22 C         138.3784  137.8283  161.8296 C.3     1  UNL1        0.0392
     23 C         139.4700  137.9104  160.8041 C.3     1  UNL1        0.0740
     24 N         140.7263  138.6725  161.1055 N.3     1  UNL1       -0.2703
     25 C         141.5616  138.3015  162.2949 C.3     1  UNL1        0.0897
     26 C         142.8179  139.0636  162.5963 C.3     1  UNL1        0.0899
     27 N         143.2390  140.1968  161.7082 N.3     1  UNL1       -0.2665
     28 C         142.4038  140.5679  160.5188 C.3     1  UNL1        0.0899
     29 C         141.1474  139.8057  160.2174 C.3     1  UNL1        0.0897
     30 C         144.4953  140.9590  162.0096 C.3     1  UNL1        0.0992
     31 C         144.4337  142.2106  162.8340 C.ar    1  UNL1       -0.0060
     32 C         144.1179  143.5238  162.1814 C.ar    1  UNL1       -0.0006
     33 C         144.0563  144.7754  163.0058 C.ar    1  UNL1        0.0294
     34 C         144.3106  144.7138  164.4828 C.ar    1  UNL1        0.1401
     35 F         144.2490  145.9654  165.3073 F       1  UNL1       -0.2042
     36 C         144.6264  143.4006  165.1354 C.ar    1  UNL1        0.0294
     37 C         144.6879  142.1490  164.3110 C.ar    1  UNL1       -0.0006
@<TRIPOS>BOND
     1     4     5    1
     2     5     6    2
     3     5     7   am
     4     7     8    1
     5     8     9    1
     6     9    10    1
     7    10     1    1
     8     1     2    2
     9     1     3   am
    10     3    21    1
    11    21    22    1
    12    22    23    1
    13    23    24    1
    14    24    25    1
    15    25    26    1
    16    26    27    1
    17    27    30    1
    18    30    31    1
    19    31    32   ar
    20    32    33   ar
    21    33    34   ar
    22    34    35    1
    23    34    36   ar
    24    36    37   ar
    25    27    28    1
    26    28    29    1
    27     3    13    1
    28    13    14   ar
    29    14    15   ar
    30    15    16   ar
    31    16    17    1
    32    16    18   ar
    33    18    19    1
    34    18    20   ar
    35    10    11    1
    36    11    12    1
    37    12     7    1
    38    29    24    1
    39    20    13   ar
    40    37    31   ar
@<TRIPOS>MOLECULE
*****
 37 40 0 0 0
SMALL
GASTEIGER

@<TRIPOS>ATOM
      1 C         140.0386  142.5262  166.7554 C.2     1  UNL1        0.2290
      2 O         140.3503  143.2672  168.0218 O.2     1  UNL1       -0.2745
      3 N         139.7246  141.0602  166.8021 N.am    1  UNL1       -0.2586
      4 C         141.0853  145.1026  160.4692 C.3     1  UNL1        0.0948
      5 C         140.0478  145.4265  161.5030 C.2     1  UNL1        0.2261
      6 O         139.0127  146.4754  161.2236 O.2     1  UNL1       -0.2749
      7 N         140.0455  144.7014  162.8161 N.am    1  UNL1       -0.2795
      8 C         141.0807  143.6524  163.0954 C.3     1  UNL1        0.0939
      9 C         141.0784  142.9274  164.4086 C.3     1  UNL1        0.0306
     10 C         140.0409  143.2513  165.4423 C.3     1  UNL1        0.0804
     11 C         139.0057  144.3002  165.1630 C.3     1  UNL1        0.0306
     12 C         139.0081  145.0253  163.8498 C.3     1  UNL1        0.0939
     13 C         139.4129  140.3192  165.5357 C.ar    1  UNL1        0.0546
     14 C         138.2269  140.7157  164.7073 C.ar    1  UNL1        0.0146
     15 C         137.9152  139.9747  163.4409 C.ar    1  UNL1       -0.0021
     16 C         138.7894  138.8373  163.0029 C.ar    1  UNL1       -0.0112
     17 C         138.4777  138.0963  161.7365 C.3     1  UNL1        0.0319
     18 C         139.9754  138.4408  163.8312 C.ar    1  UNL1        0.0549
     19 CL        140.8497  137.3034  163.3932 Cl      1  UNL1       -0.0825
     20 C         140.2871  139.1818  165.0977 C.ar    1  UNL1        0.0260
     21 C         139.7223  140.3352  168.1153 C.3     1  UNL1        0.0996
     22 C         140.7384  140.6792  169.1637 C.3     1  UNL1        0.0392
     23 C         142.1486  140.1852  169.0320 C.3     1  UNL1        0.0740
     24 N         142.7607  140.0175  167.6729 N.3     1  UNL1       -0.2703
     25 C         143.0490  138.6435  167.1445 C.3     1  UNL1        0.0897
     26 C         143.6611  138.4758  165.7855 C.3     1  UNL1        0.0899
     27 N         143.9849  139.6820  164.9547 N.3     1  UNL1       -0.2665
     28 C         143.6967  141.0560  165.4830 C.3     1  UNL1        0.0899
     29 C         143.0845  141.2237  166.8422 C.3     1  UNL1        0.0897
     30 C         144.5970  139.5143  163.5956 C.3     1  UNL1        0.0992
     31 C         143.7241  139.2255  162.4103 C.ar    1  UNL1       -0.0060
     32 C         143.9239  137.9657  161.6210 C.ar    1  UNL1       -0.0006
     33 C         143.0511  137.6769  160.4358 C.ar    1  UNL1        0.0294
     34 C         141.9785  138.6478  160.0400 C.ar    1  UNL1        0.1401
     35 F         141.1056  138.3590  158.8547 F       1  UNL1       -0.2042
     36 C         141.7787  139.9076  160.8293 C.ar    1  UNL1        0.0294
     37 C         142.6515  140.1964  162.0145 C.ar    1  UNL1       -0.0006
@<TRIPOS>BOND
     1     4     5    1
     2     5     6    2
     3     5     7   am
     4     7     8    1
     5     8     9    1
     6     9    10    1
     7    10     1    1
     8     1     2    2
     9     1     3   am
    10     3    21    1
    11    21    22    1
    12    22    23    1
    13    23    24    1
    14    24    25    1
    15    25    26    1
    16    26    27    1
    17    27    30    1
    18    30    31    1
    19    31    32   ar
    20    32    33   ar
    21    33    34   ar
    22    34    35    1
    23    34    36   ar
    24    36    37   ar
    25    27    28    1
    26    28    29    1
    27     3    13    1
    28    13    14   ar
    29    14    15   ar
    30    15    16   ar
    31    16    17    1
    32    16    18   ar
    33    18    19    1
    34    18    20   ar
    35    10    11    1
    36    11    12    1
    37    12     7    1
    38    29    24    1
    39    20    13   ar
    40    37    31   ar
@<TRIPOS>MOLECULE
*****
 37 40 0 0 0
SMALL
GASTEIGER

@<TRIPOS>ATOM
      1 C         144.5438  142.0390  162.9211 C.2     1  UNL1        0.2290
      2 O         145.9509  141.6166  162.6186 O.2     1  UNL1       -0.2745
      3 N         143.6926  142.6396  161.8419 N.am    1  UNL1       -0.2586
      4 C         142.2804  142.4879  169.3961 C.3     1  UNL1        0.0948
      5 C         142.3200  141.3262  168.4480 C.2     1  UNL1        0.2261
      6 O         141.8036  139.9864  168.8816 O.2     1  UNL1       -0.2749
      7 N         142.8759  141.5044  167.0662 N.am    1  UNL1       -0.2795
      8 C         143.3923  142.8443  166.6326 C.3     1  UNL1        0.0939
      9 C         143.9483  143.0225  165.2509 C.3     1  UNL1        0.0306
     10 C         143.9878  141.8608  164.3028 C.3     1  UNL1        0.0804
     11 C         143.4714  140.5209  164.7364 C.3     1  UNL1        0.0306
     12 C         142.9155  140.3428  166.1181 C.3     1  UNL1        0.0939
     13 C         142.2854  143.0620  162.1443 C.ar    1  UNL1        0.0546
     14 C         141.2859  142.0519  162.6244 C.ar    1  UNL1        0.0146
     15 C         139.8788  142.4743  162.9269 C.ar    1  UNL1       -0.0021
     16 C         139.4711  143.9069  162.7493 C.ar    1  UNL1       -0.0112
     17 C         138.0640  144.3293  163.0518 C.3     1  UNL1        0.0319
     18 C         140.4706  144.9171  162.2692 C.ar    1  UNL1        0.0549
     19 CL        140.0630  146.3496  162.0916 Cl      1  UNL1       -0.0825
     20 C         141.8778  144.4946  161.9667 C.ar    1  UNL1        0.0260
     21 C         144.2486  142.8178  160.4601 C.3     1  UNL1        0.0996
     22 C         143.7884  141.9254  159.3457 C.3     1  UNL1        0.0392
     23 C         143.7710  140.4375  159.5348 C.3     1  UNL1        0.0740
     24 N         142.6061  139.7814  160.2149 N.3     1  UNL1       -0.2703
     25 C         142.8295  138.9256  161.4264 C.3     1  UNL1        0.0897
     26 C         141.6646  138.2695  162.1064 C.3     1  UNL1        0.0899
     27 N         140.2762  138.4693  161.5750 N.3     1  UNL1       -0.2665
     28 C         140.0527  139.3250  160.3636 C.3     1  UNL1        0.0899
     29 C         141.2177  139.9812  159.6835 C.3     1  UNL1        0.0897
     30 C         139.1112  137.8132  162.2550 C.3     1  UNL1        0.0992
     31 C         138.7851  138.1536  163.6791 C.ar    1  UNL1       -0.0060
     32 C         138.4788  139.5718  164.0600 C.ar    1  UNL1       -0.0006
     33 C         138.1527  139.9122  165.4839 C.ar    1  UNL1        0.0294
     34 C         138.1328  138.8344  166.5270 C.ar    1  UNL1        0.1401
     35 F         137.8067  139.1748  167.9511 F       1  UNL1       -0.2042
     36 C         138.4391  137.4163  166.1461 C.ar    1  UNL1        0.0294
     37 C         138.7652  137.0759  164.7222 C.ar    1  UNL1       -0.0006
@<TRIPOS>BOND
     1     4     5    1
     2     5     6    2
     3     5     7   am
     4     7     8    1
     5     8     9    1
     6     9    10    1
     7    10     1    1
     8     1     2    2
     9     1     3   am
    10     3    21    1
    11    21    22    1
    12    22    23    1
    13    23    24    1
    14    24    25    1
    15    25    26    1
    16    26    27    1
    17    27    30    1
    18    30    31    1
    19    31    32   ar
    20    32    33   ar
    21    33    34   ar
    22    34    35    1
    23    34    36   ar
    24    36    37   ar
    25    27    28    1
    26    28    29    1
    27     3    13    1
    28    13    14   ar
    29    14    15   ar
    30    15    16   ar
    31    16    17    1
    32    16    18   ar
    33    18    19    1
    34    18    20   ar
    35    10    11    1
    36    11    12    1
    37    12     7    1
    38    29    24    1
    39    20    13   ar
    40    37    31   ar
@<TRIPOS>MOLECULE
*****
 37 40 0 0 0
SMALL
GASTEIGER

@<TRIPOS>ATOM
      1 C         141.3207  141.9161  159.1462 C.2     1  UNL1        0.2290
      2 O         141.5897  141.3832  157.7701 O.2     1  UNL1       -0.2745
      3 N         140.0856  142.7257  159.4087 N.am    1  UNL1       -0.2586
      4 C         145.0722  139.5416  164.3939 C.3     1  UNL1        0.0948
      5 C         145.1854  140.8094  163.6003 C.2     1  UNL1        0.2261
      6 O         146.2649  141.8006  163.9203 O.2     1  UNL1       -0.2749
      7 N         144.2193  141.0861  162.4868 N.am    1  UNL1       -0.2795
      8 C         143.1398  140.0950  162.1668 C.3     1  UNL1        0.0939
      9 C         142.1736  140.3716  161.0533 C.3     1  UNL1        0.0306
     10 C         142.2869  141.6395  160.2597 C.3     1  UNL1        0.0804
     11 C         143.3663  142.6306  160.5797 C.3     1  UNL1        0.0306
     12 C         144.3325  142.3539  161.6932 C.3     1  UNL1        0.0939
     13 C         139.8166  143.2586  160.7849 C.ar    1  UNL1        0.0546
     14 C         140.1221  144.6914  161.1072 C.ar    1  UNL1        0.0146
     15 C         139.8531  145.2243  162.4833 C.ar    1  UNL1       -0.0021
     16 C         139.2786  144.3245  163.5370 C.ar    1  UNL1       -0.0112
     17 C         139.0096  144.8575  164.9131 C.3     1  UNL1        0.0319
     18 C         138.9730  142.8918  163.2147 C.ar    1  UNL1        0.0549
     19 CL        138.3984  141.9920  164.2683 Cl      1  UNL1       -0.0825
     20 C         139.2420  142.3589  161.8385 C.ar    1  UNL1        0.0260
     21 C         139.1194  143.0024  158.2952 C.3     1  UNL1        0.0996
     22 C         137.9177  142.1240  158.1093 C.3     1  UNL1        0.0392
     23 C         138.0776  140.6331  158.0683 C.3     1  UNL1        0.0740
     24 N         138.2750  139.8646  159.3412 N.3     1  UNL1       -0.2703
     25 C         139.3922  138.8697  159.4511 C.3     1  UNL1        0.0897
     26 C         139.5896  138.1012  160.7241 C.3     1  UNL1        0.0899
     27 N         138.6697  138.3276  161.8871 N.3     1  UNL1       -0.2665
     28 C         137.5526  139.3225  161.7772 C.3     1  UNL1        0.0899
     29 C         137.3552  140.0910  160.5042 C.3     1  UNL1        0.0897
     30 C         138.8671  137.5591  163.1601 C.3     1  UNL1        0.0992
     31 C         139.2546  138.2784  164.4181 C.ar    1  UNL1       -0.0060
     32 C         140.6334  138.8519  164.5597 C.ar    1  UNL1       -0.0006
     33 C         141.0210  139.5712  165.8176 C.ar    1  UNL1        0.0294
     34 C         140.0297  139.7171  166.9339 C.ar    1  UNL1        0.1401
     35 F         140.4172  140.4364  168.1919 F       1  UNL1       -0.2042
     36 C         138.6509  139.1436  166.7922 C.ar    1  UNL1        0.0294
     37 C         138.2633  138.4243  165.5343 C.ar    1  UNL1       -0.0006
@<TRIPOS>BOND
     1     4     5    1
     2     5     6    2
     3     5     7   am
     4     7     8    1
     5     8     9    1
     6     9    10    1
     7    10     1    1
     8     1     2    2
     9     1     3   am
    10     3    21    1
    11    21    22    1
    12    22    23    1
    13    23    24    1
    14    24    25    1
    15    25    26    1
    16    26    27    1
    17    27    30    1
    18    30    31    1
    19    31    32   ar
    20    32    33   ar
    21    33    34   ar
    22    34    35    1
    23    34    36   ar
    24    36    37   ar
    25    27    28    1
    26    28    29    1
    27     3    13    1
    28    13    14   ar
    29    14    15   ar
    30    15    16   ar
    31    16    17    1
    32    16    18   ar
    33    18    19    1
    34    18    20   ar
    35    10    11    1
    36    11    12    1
    37    12     7    1
    38    29    24    1
    39    20    13   ar
    40    37    31   ar
@<TRIPOS>MOLECULE
*****
 37 40 0 0 0
SMALL
GASTEIGER

@<TRIPOS>ATOM
      1 C         138.7336  142.4590  161.8147 C.2     1  UNL1        0.2290
      2 O         137.8018  143.6305  161.7185 O.2     1  UNL1       -0.2745
      3 N         139.7643  142.2311  160.7491 N.am    1  UNL1       -0.2586
      4 C         138.0018  137.2414  166.2296 C.3     1  UNL1        0.0948
      5 C         138.3379  138.6846  166.4621 C.2     1  UNL1        0.2261
      6 O         138.5752  139.1843  167.8563 O.2     1  UNL1       -0.2749
      7 N         138.4369  139.6282  165.3002 N.am    1  UNL1       -0.2795
      8 C         138.1996  139.1286  163.9060 C.3     1  UNL1        0.0939
      9 C         138.2985  140.0722  162.7441 C.3     1  UNL1        0.0306
     10 C         138.6347  141.5154  162.9766 C.3     1  UNL1        0.0804
     11 C         138.8720  142.0150  164.3708 C.3     1  UNL1        0.0306
     12 C         138.7730  141.0714  165.5327 C.3     1  UNL1        0.0939
     13 C         140.6962  141.0595  160.8453 C.ar    1  UNL1        0.0546
     14 C         140.4898  139.8628  159.9648 C.ar    1  UNL1        0.0146
     15 C         141.4216  138.6913  160.0609 C.ar    1  UNL1       -0.0021
     16 C         142.5599  138.7165  161.0375 C.ar    1  UNL1       -0.0112
     17 C         143.4917  137.5450  161.1337 C.3     1  UNL1        0.0319
     18 C         142.7663  139.9132  161.9180 C.ar    1  UNL1        0.0549
     19 CL        143.9045  139.9384  162.8946 Cl      1  UNL1       -0.0825
     20 C         141.8344  141.0848  161.8218 C.ar    1  UNL1        0.0260
     21 C         139.8632  143.1747  159.5873 C.3     1  UNL1        0.0996
     22 C         140.9818  144.1722  159.5243 C.3     1  UNL1        0.0392
     23 C         141.2194  145.1061  160.6739 C.3     1  UNL1        0.0740
     24 N         141.9244  144.6169  161.9042 N.3     1  UNL1       -0.2703
     25 C         141.2101  144.6050  163.2232 C.3     1  UNL1        0.0897
     26 C         141.9151  144.1159  164.4535 C.3     1  UNL1        0.0899
     27 N         143.3344  143.6387  164.3649 N.3     1  UNL1       -0.2665
     28 C         144.0487  143.6506  163.0459 C.3     1  UNL1        0.0899
     29 C         143.3437  144.1397  161.8155 C.3     1  UNL1        0.0897
     30 C         144.0394  143.1496  165.5952 C.3     1  UNL1        0.0992
     31 C         143.3571  142.1815  166.5158 C.ar    1  UNL1       -0.0060
     32 C         143.3218  142.4477  167.9915 C.ar    1  UNL1       -0.0006
     33 C         142.6396  141.4797  168.9121 C.ar    1  UNL1        0.0294
     34 C         141.9925  140.2457  168.3569 C.ar    1  UNL1        0.1401
     35 F         141.3101  139.2776  169.2775 F       1  UNL1       -0.2042
     36 C         142.0277  139.9795  166.8811 C.ar    1  UNL1        0.0294
     37 C         142.7100  140.9475  165.9605 C.ar    1  UNL1       -0.0006
@<TRIPOS>BOND
     1     4     5    1
     2     5     6    2
     3     5     7   am
     4     7     8    1
     5     8     9    1
     6     9    10    1
     7    10     1    1
     8     1     2    2
     9     1     3   am
    10     3    21    1
    11    21    22    1
    12    22    23    1
    13    23    24    1
    14    24    25    1
    15    25    26    1
    16    26    27    1
    17    27    30    1
    18    30    31    1
    19    31    32   ar
    20    32    33   ar
    21    33    34   ar
    22    34    35    1
    23    34    36   ar
    24    36    37   ar
    25    27    28    1
    26    28    29    1
    27     3    13    1
    28    13    14   ar
    29    14    15   ar
    30    15    16   ar
    31    16    17    1
    32    16    18   ar
    33    18    19    1
    34    18    20   ar
    35    10    11    1
    36    11    12    1
    37    12     7    1
    38    29    24    1
    39    20    13   ar
    40    37    31   ar
@<TRIPOS>MOLECULE
*****
 37 40 0 0 0
SMALL
GASTEIGER

@<TRIPOS>ATOM
      1 C         142.7296  142.0128  160.0749 C.2     1  UNL1        0.2290
      2 O         143.7523  141.4949  159.1076 O.2     1  UNL1       -0.2745
      3 N         141.3196  142.2486  159.6208 N.am    1  UNL1       -0.2586
      4 C         143.6581  142.3556  166.8771 C.3     1  UNL1        0.0948
      5 C         144.2788  143.1416  165.7605 C.2     1  UNL1        0.2261
      6 O         145.2867  144.2098  166.0653 O.2     1  UNL1       -0.2749
      7 N         143.8915  142.8594  164.3391 N.am    1  UNL1       -0.2795
      8 C         142.8836  141.7912  164.0343 C.3     1  UNL1        0.0939
      9 C         142.4963  141.5090  162.6129 C.3     1  UNL1        0.0306
     10 C         143.1169  142.2950  161.4963 C.3     1  UNL1        0.0804
     11 C         144.1248  143.3632  161.8011 C.3     1  UNL1        0.0306
     12 C         144.5121  143.6454  163.2225 C.3     1  UNL1        0.0939
     13 C         140.2968  142.7665  160.5882 C.ar    1  UNL1        0.0546
     14 C         140.2738  144.2228  160.9471 C.ar    1  UNL1        0.0146
     15 C         139.2510  144.7407  161.9143 C.ar    1  UNL1       -0.0021
     16 C         138.2512  143.8024  162.5228 C.ar    1  UNL1       -0.0112
     17 C         137.2285  144.3204  163.4900 C.3     1  UNL1        0.0319
     18 C         138.2743  142.3462  162.1639 C.ar    1  UNL1        0.0549
     19 CL        137.2745  141.4079  162.7722 Cl      1  UNL1       -0.0825
     20 C         139.2971  141.8282  161.1965 C.ar    1  UNL1        0.0260
     21 C         140.9323  141.9664  158.1994 C.3     1  UNL1        0.0996
     22 C         140.1854  140.7103  157.8608 C.3     1  UNL1        0.0392
     23 C         140.8067  139.3722  158.1316 C.3     1  UNL1        0.0740
     24 N         140.7762  138.7976  159.5168 N.3     1  UNL1       -0.2703
     25 C         142.0597  138.4873  160.2286 C.3     1  UNL1        0.0897
     26 C         142.0292  137.9127  161.6138 C.3     1  UNL1        0.0899
     27 N         140.7152  137.6484  162.2873 N.3     1  UNL1       -0.2665
     28 C         139.4318  137.9586  161.5756 C.3     1  UNL1        0.0899
     29 C         139.4623  138.5333  160.1904 C.3     1  UNL1        0.0897
     30 C         140.6847  137.0737  163.6725 C.3     1  UNL1        0.0992
     31 C         140.2795  137.9341  164.8326 C.ar    1  UNL1       -0.0060
     32 C         138.8542  137.9401  165.3001 C.ar    1  UNL1       -0.0006
     33 C         138.4490  138.8003  166.4601 C.ar    1  UNL1        0.0294
     34 C         139.4691  139.6545  167.1527 C.ar    1  UNL1        0.1401
     35 F         139.0639  140.5148  168.3128 F       1  UNL1       -0.2042
     36 C         140.8943  139.6485  166.6853 C.ar    1  UNL1        0.0294
     37 C         141.2996  138.7882  165.5252 C.ar    1  UNL1       -0.0006
@<TRIPOS>BOND
     1     4     5    1
     2     5     6    2
     3     5     7   am
     4     7     8    1
     5     8     9    1
     6     9    10    1
     7    10     1    1
     8     1     2    2
     9     1     3   am
    10     3    21    1
    11    21    22    1
    12    22    23    1
    13    23    24    1
    14    24    25    1
    15    25    26    1
    16    26    27    1
    17    27    30    1
    18    30    31    1
    19    31    32   ar
    20    32    33   ar
    21    33    34   ar
    22    34    35    1
    23    34    36   ar
    24    36    37   ar
    25    27    28    1
    26    28    29    1
    27     3    13    1
    28    13    14   ar
    29    14    15   ar
    30    15    16   ar
    31    16    17    1
    32    16    18   ar
    33    18    19    1
    34    18    20   ar
    35    10    11    1
    36    11    12    1
    37    12     7    1
    38    29    24    1
    39    20    13   ar
    40    37    31   ar
@<TRIPOS>MOLECULE
*****
 37 40 0 0 0
SMALL
GASTEIGER

@<TRIPOS>ATOM
      1 C         142.5845  143.7268  160.0547 C.2     1  UNL1        0.2290
      2 O         142.3937  144.5452  158.8122 O.2     1  UNL1       -0.2745
      3 N         143.7180  142.7483  160.1415 N.am    1  UNL1       -0.2586
      4 C         137.4397  143.7690  164.6131 C.3     1  UNL1        0.0948
      5 C         138.8136  144.3676  164.6774 C.2     1  UNL1        0.2261
      6 O         139.2447  145.1264  165.8973 O.2     1  UNL1       -0.2749
      7 N         139.7563  144.2074  163.5217 N.am    1  UNL1       -0.2795
      8 C         139.3252  143.4486  162.3017 C.3     1  UNL1        0.0939
      9 C         140.2679  143.2884  161.1461 C.3     1  UNL1        0.0306
     10 C         141.6418  143.8870  161.2104 C.3     1  UNL1        0.0804
     11 C         142.0729  144.6458  162.4303 C.3     1  UNL1        0.0306
     12 C         141.1301  144.8060  163.5860 C.3     1  UNL1        0.0939
     13 C         143.9089  141.9300  161.3841 C.ar    1  UNL1        0.0546
     14 C         145.0663  142.2100  162.2962 C.ar    1  UNL1        0.0146
     15 C         145.2572  141.3917  163.5387 C.ar    1  UNL1       -0.0021
     16 C         144.2906  140.2933  163.8692 C.ar    1  UNL1       -0.0112
     17 C         144.4814  139.4750  165.1117 C.3     1  UNL1        0.0319
     18 C         143.1331  140.0132  162.9571 C.ar    1  UNL1        0.0549
     19 CL        142.1665  138.9149  163.2876 Cl      1  UNL1       -0.0825
     20 C         142.9423  140.8316  161.7146 C.ar    1  UNL1        0.0260
     21 C         144.6608  142.5881  158.9859 C.3     1  UNL1        0.0996
     22 C         144.5735  141.3738  158.1095 C.3     1  UNL1        0.0392
     23 C         143.2729  141.0131  157.4551 C.3     1  UNL1        0.0740
     24 N         142.2049  140.3148  158.2436 N.3     1  UNL1       -0.2703
     25 C         140.8387  140.9234  158.3591 C.3     1  UNL1        0.0897
     26 C         139.7708  140.2251  159.1476 C.3     1  UNL1        0.0899
     27 N         140.0688  138.9181  159.8205 N.3     1  UNL1       -0.2665
     28 C         141.4349  138.3094  159.7050 C.3     1  UNL1        0.0899
     29 C         142.5029  139.0077  158.9165 C.3     1  UNL1        0.0897
     30 C         139.0008  138.2197  160.6089 C.3     1  UNL1        0.0992
     31 C         138.8036  138.5479  162.0593 C.ar    1  UNL1       -0.0060
     32 C         139.0757  137.5094  163.1069 C.ar    1  UNL1       -0.0006
     33 C         138.8785  137.8374  164.5572 C.ar    1  UNL1        0.0294
     34 C         138.4092  139.2040  164.9599 C.ar    1  UNL1        0.1401
     35 F         138.2120  139.5321  166.4103 F       1  UNL1       -0.2042
     36 C         138.1371  140.2425  163.9123 C.ar    1  UNL1        0.0294
     37 C         138.3343  139.9144  162.4620 C.ar    1  UNL1       -0.0006
@<TRIPOS>BOND
     1     4     5    1
     2     5     6    2
     3     5     7   am
     4     7     8    1
     5     8     9    1
     6     9    10    1
     7    10     1    1
     8     1     2    2
     9     1     3   am
    10     3    21    1
    11    21    22    1
    12    22    23    1
    13    23    24    1
    14    24    25    1
    15    25    26    1
    16    26    27    1
    17    27    30    1
    18    30    31    1
    19    31    32   ar
    20    32    33   ar
    21    33    34   ar
    22    34    35    1
    23    34    36   ar
    24    36    37   ar
    25    27    28    1
    26    28    29    1
    27     3    13    1
    28    13    14   ar
    29    14    15   ar
    30    15    16   ar
    31    16    17    1
    32    16    18   ar
    33    18    19    1
    34    18    20   ar
    35    10    11    1
    36    11    12    1
    37    12     7    1
    38    29    24    1
    39    20    13   ar
    40    37    31   ar
@<TRIPOS>MOLECULE
*****
 37 40 0 0 0
SMALL
GASTEIGER

@<TRIPOS>ATOM
      1 C         140.5406  138.3082  162.9608 C.2     1  UNL1        0.2290
      2 O         141.1045  136.9199  162.8933 O.2     1  UNL1       -0.2745
      3 N         140.5365  139.0535  164.2625 N.am    1  UNL1       -0.2586
      4 C         139.1825  141.7243  157.1526 C.3     1  UNL1        0.0948
      5 C         138.3009  140.8800  158.0242 C.2     1  UNL1        0.2261
      6 O         136.8594  140.6786  157.6617 O.2     1  UNL1       -0.2749
      7 N         138.8608  140.2370  159.2584 N.am    1  UNL1       -0.2795
      8 C         140.3024  140.4384  159.6209 C.3     1  UNL1        0.0939
      9 C         140.8623  139.7955  160.8550 C.3     1  UNL1        0.0306
     10 C         139.9807  138.9512  161.7267 C.3     1  UNL1        0.0804
     11 C         138.5392  138.7498  161.3642 C.3     1  UNL1        0.0306
     12 C         137.9792  139.3927  160.1300 C.3     1  UNL1        0.0939
     13 C         139.9726  140.4419  164.3301 C.ar    1  UNL1        0.0546
     14 C         138.5084  140.6450  164.5847 C.ar    1  UNL1        0.0146
     15 C         137.9444  142.0333  164.6523 C.ar    1  UNL1       -0.0021
     16 C         138.8446  143.2185  164.4653 C.ar    1  UNL1       -0.0112
     17 C         138.2806  144.6068  164.5328 C.3     1  UNL1        0.0319
     18 C         140.3088  143.0154  164.2106 C.ar    1  UNL1        0.0549
     19 CL        141.2091  144.2005  164.0236 Cl      1  UNL1       -0.0825
     20 C         140.8728  141.6270  164.1431 C.ar    1  UNL1        0.0260
     21 C         141.0964  138.4106  165.4967 C.3     1  UNL1        0.0996
     22 C         142.3790  138.9149  166.0891 C.3     1  UNL1        0.0392
     23 C         143.6626  138.7789  165.3250 C.3     1  UNL1        0.0740
     24 N         143.9436  139.6853  164.1634 N.3     1  UNL1       -0.2703
     25 C         144.1782  141.1489  164.3938 C.3     1  UNL1        0.0897
     26 C         144.4592  142.0554  163.2322 C.3     1  UNL1        0.0899
     27 N         144.5058  141.4983  161.8403 N.3     1  UNL1       -0.2665
     28 C         144.2713  140.0348  161.6099 C.3     1  UNL1        0.0899
     29 C         143.9902  139.1283  162.7715 C.3     1  UNL1        0.0897
     30 C         144.7868  142.4048  160.6787 C.3     1  UNL1        0.0992
     31 C         143.6518  143.0368  159.9287 C.ar    1  UNL1       -0.0060
     32 C         143.7120  143.1516  158.4343 C.ar    1  UNL1       -0.0006
     33 C         142.5771  143.7835  157.6843 C.ar    1  UNL1        0.0294
     34 C         141.3819  144.3006  158.4287 C.ar    1  UNL1        0.1401
     35 F         140.2469  144.9326  157.6787 F       1  UNL1       -0.2042
     36 C         141.3217  144.1858  159.9231 C.ar    1  UNL1        0.0294
     37 C         142.4566  143.5538  160.6731 C.ar    1  UNL1       -0.0006
@<TRIPOS>BOND
     1     4     5    1
     2     5     6    2
     3     5     7   am
     4     7     8    1
     5     8     9    1
     6     9    10    1
     7    10     1    1
     8     1     2    2
     9     1     3   am
    10     3    21    1
    11    21    22    1
    12    22    23    1
    13    23    24    1
    14    24    25    1
    15    25    26    1
    16    26    27    1
    17    27    30    1
    18    30    31    1
    19    31    32   ar
    20    32    33   ar
    21    33    34   ar
    22    34    35    1
    23    34    36   ar
    24    36    37   ar
    25    27    28    1
    26    28    29    1
    27     3    13    1
    28    13    14   ar
    29    14    15   ar
    30    15    16   ar
    31    16    17    1
    32    16    18   ar
    33    18    19    1
    34    18    20   ar
    35    10    11    1
    36    11    12    1
    37    12     7    1
    38    29    24    1
    39    20    13   ar
    40    37    31   ar
