@<TRIPOS>MOLECULE
*****
 33 36 0 0 0
SMALL
GASTEIGER

@<TRIPOS>ATOM
      1 C         140.4351  140.1753  160.4989 C.2     1  UNL1        0.0472
      2 C         141.7985  139.7315  160.0580 C.2     1  UNL1        0.0610
      3 C         141.9457  138.8344  158.8649 C.2     1  UNL1        0.2253
      4 N         143.1509  138.2382  158.2001 N.2     1  UNL1       -0.0319
      5 C         142.6796  137.4164  157.0371 C.2     1  UNL1        0.4061
      6 N         141.1832  137.5047  156.9831 N.2     1  UNL1       -0.0486
      7 C         140.7296  138.3811  158.1128 C.3     1  UNL1        0.3014
      8 C         139.3663  138.8249  158.5538 C.2     1  UNL1        0.0318
      9 C         139.2191  139.7220  159.7469 C.2     1  UNL1       -0.0081
     10 C         137.8557  140.1658  160.1878 C.3     1  UNL1        0.0321
     11 N         139.9935  142.8667  164.0783 N.3     1  UNL1       -0.2698
     12 C         140.0159  141.3777  164.2578 C.3     1  UNL1        0.0938
     13 C         140.1631  140.4806  163.0647 C.3     1  UNL1        0.1081
     14 N         140.2879  141.0725  161.6921 N.pl3   1  UNL1       -0.3048
     15 C         140.2654  142.5615  161.5126 C.3     1  UNL1        0.1081
     16 C         140.1182  143.4587  162.7057 C.3     1  UNL1        0.0938
     17 C         138.7704  144.8089  165.2957 C.3     1  UNL1        0.0188
     18 C         139.8463  143.7639  165.2713 C.3     1  UNL1        0.0722
     19 C         143.5517  136.6422  156.0936 C.2     1  UNL1        0.2592
     20 O         144.8166  137.2538  155.5685 O.2     1  UNL1       -0.2832
     21 C         143.1588  135.2563  155.6753 C.3     1  UNL1        0.0634
     22 C         142.8192  136.0119  154.4248 C.3     1  UNL1        0.0080
     23 C         143.6349  134.9820  157.0711 C.3     1  UNL1        0.0092
     24 C         143.6002  133.5842  157.6143 C.3     1  UNL1        0.0201
     25 C         143.0894  132.4607  156.7616 C.3     1  UNL1        0.0748
     26 C         142.6133  132.7351  155.3660 C.3     1  UNL1        0.0201
     27 C         142.6481  134.1328  154.8227 C.3     1  UNL1        0.0092
     28 N         143.0547  131.0630  157.3049 N.am    1  UNL1       -0.2723
     29 C         144.0652  130.0544  156.8450 C.2     1  UNL1        0.4017
     30 O         145.1105  130.4435  155.8420 O.2     1  UNL1       -0.2264
     31 H         142.3686  130.8076  157.9632 H       1  UNL1        0.1527
     32 O         144.0306  128.6566  157.3882 O.3     1  UNL1       -0.4306
     33 C         145.0553  128.2160  158.3911 C.3     1  UNL1        0.2573
@<TRIPOS>BOND
     1    17    18    1
     2    18    11    1
     3    11    12    1
     4    12    13    1
     5    13    14    1
     6    14     1    1
     7     1     2    2
     8     2     3    1
     9     3     4    2
    10     4     5    1
    11     5    19    1
    12    19    20    2
    13    19    21    1
    14    21    22    1
    15    21    23    1
    16    23    24    1
    17    24    25    1
    18    25    28    1
    19    28    29   am
    20    29    30    2
    21    29    32    1
    22    32    33    1
    23    25    26    1
    24    26    27    1
    25     5     6    2
    26     6     7    1
    27     7     8    1
    28     8     9    2
    29     9    10    1
    30    14    15    1
    31    15    16    1
    32    16    11    1
    33     9     1    1
    34     7     3    1
    35    27    21    1
    36    28    31    1
@<TRIPOS>MOLECULE
*****
 33 36 0 0 0
SMALL
GASTEIGER

@<TRIPOS>ATOM
      1 C         142.3523  143.5208  158.6748 C.2     1  UNL1        0.0472
      2 C         141.9356  142.6544  159.8262 C.2     1  UNL1        0.0610
      3 C         140.9000  143.1423  160.7955 C.2     1  UNL1        0.2253
      4 N         140.2937  142.5160  162.0162 N.2     1  UNL1       -0.0319
      5 C         139.3002  143.4832  162.5885 C.2     1  UNL1        0.4061
      6 N         139.2923  144.7071  161.7214 N.2     1  UNL1       -0.0486
      7 C         140.2811  144.4965  160.6132 C.3     1  UNL1        0.3014
      8 C         140.6978  145.3628  159.4618 C.2     1  UNL1        0.0318
      9 C         141.7334  144.8749  158.4926 C.2     1  UNL1       -0.0081
     10 C         142.1502  145.7413  157.3411 C.3     1  UNL1        0.0321
     11 N         145.4593  142.0572  155.7670 N.3     1  UNL1       -0.2698
     12 C         145.8115  142.2358  157.2141 C.3     1  UNL1        0.0938
     13 C         144.7758  142.7237  158.1833 C.3     1  UNL1        0.1081
     14 N         143.3880  143.0329  157.7055 N.pl3   1  UNL1       -0.3048
     15 C         143.0359  142.8543  156.2584 C.3     1  UNL1        0.1081
     16 C         144.0715  142.3665  155.2892 C.3     1  UNL1        0.0938
     17 C         147.8813  142.1411  154.8306 C.3     1  UNL1        0.0188
     18 C         146.4949  141.5693  154.7978 C.3     1  UNL1        0.0722
     19 C         138.4616  143.2647  163.8129 C.2     1  UNL1        0.2592
     20 O         137.5029  144.3262  164.2645 O.2     1  UNL1       -0.2832
     21 C         138.5818  141.9847  164.5856 C.3     1  UNL1        0.0634
     22 C         137.5843  141.5684  163.5456 C.3     1  UNL1        0.0080
     23 C         139.5376  142.8455  165.3573 C.3     1  UNL1        0.0092
     24 C         140.2671  142.2818  166.5405 C.3     1  UNL1        0.0201
     25 C         140.0408  140.8571  166.9520 C.3     1  UNL1        0.0748
     26 C         139.0851  139.9964  166.1803 C.3     1  UNL1        0.0201
     27 C         138.3555  140.5601  164.9971 C.3     1  UNL1        0.0092
     28 N         140.7704  140.2934  168.1353 N.am    1  UNL1       -0.2723
     29 C         142.1730  139.7855  167.9791 C.2     1  UNL1        0.4017
     30 O         142.8462  139.8412  166.6398 O.2     1  UNL1       -0.2264
     31 H         140.3285  140.2568  169.0143 H       1  UNL1        0.1527
     32 O         142.9027  139.2217  169.1623 O.3     1  UNL1       -0.4306
     33 C         142.7975  139.8947  170.4987 C.3     1  UNL1        0.2573
@<TRIPOS>BOND
     1    17    18    1
     2    18    11    1
     3    11    12    1
     4    12    13    1
     5    13    14    1
     6    14     1    1
     7     1     2    2
     8     2     3    1
     9     3     4    2
    10     4     5    1
    11     5    19    1
    12    19    20    2
    13    19    21    1
    14    21    22    1
    15    21    23    1
    16    23    24    1
    17    24    25    1
    18    25    28    1
    19    28    29   am
    20    29    30    2
    21    29    32    1
    22    32    33    1
    23    25    26    1
    24    26    27    1
    25     5     6    2
    26     6     7    1
    27     7     8    1
    28     8     9    2
    29     9    10    1
    30    14    15    1
    31    15    16    1
    32    16    11    1
    33     9     1    1
    34     7     3    1
    35    27    21    1
    36    28    31    1
@<TRIPOS>MOLECULE
*****
 33 36 0 0 0
SMALL
GASTEIGER

@<TRIPOS>ATOM
      1 C         139.8933  143.2505  158.5176 C.2     1  UNL1        0.0472
      2 C         139.0620  142.0030  158.5708 C.2     1  UNL1        0.0610
      3 C         138.0466  141.7322  157.5005 C.2     1  UNL1        0.2253
      4 N         137.0895  140.5967  157.2891 N.2     1  UNL1       -0.0319
      5 C         136.3139  140.8717  156.0350 C.2     1  UNL1        0.4061
      6 N         136.7916  142.1770  155.4713 N.2     1  UNL1       -0.0486
      7 C         137.8625  142.7089  156.3770 C.3     1  UNL1        0.3014
      8 C         138.6938  143.9564  156.3238 C.2     1  UNL1        0.0318
      9 C         139.7091  144.2271  157.3942 C.2     1  UNL1       -0.0081
     10 C         140.5404  145.4747  157.3410 C.3     1  UNL1        0.0321
     11 N         142.9394  144.0630  161.7287 N.3     1  UNL1       -0.2698
     12 C         141.5567  144.6326  161.8453 C.3     1  UNL1        0.0938
     13 C         140.5414  144.3618  160.7749 C.3     1  UNL1        0.1081
     14 N         140.9087  143.5213  159.5880 N.pl3   1  UNL1       -0.3048
     15 C         142.2914  142.9517  159.4715 C.3     1  UNL1        0.1081
     16 C         143.3068  143.2225  160.5419 C.3     1  UNL1        0.0938
     17 C         143.6044  145.2180  163.9589 C.3     1  UNL1        0.0188
     18 C         143.9548  144.3337  162.7990 C.3     1  UNL1        0.0722
     19 C         135.2477  139.9951  155.4477 C.2     1  UNL1        0.2592
     20 O         135.6259  138.7384  154.7213 O.2     1  UNL1       -0.2832
     21 C         133.8034  140.3752  155.5868 C.3     1  UNL1        0.0634
     22 C         134.1675  141.1756  154.3715 C.3     1  UNL1        0.0080
     23 C         133.9409  139.4428  156.7538 C.3     1  UNL1        0.0092
     24 C         132.7606  139.1685  157.6378 C.3     1  UNL1        0.0201
     25 C         131.4426  139.8267  157.3549 C.3     1  UNL1        0.0748
     26 C         131.3052  140.7590  156.1879 C.3     1  UNL1        0.0201
     27 C         132.4855  141.0333  155.3039 C.3     1  UNL1        0.0092
     28 N         130.2623  139.5523  158.2389 N.am    1  UNL1       -0.2723
     29 C         129.3276  138.4251  157.9137 C.2     1  UNL1        0.4017
     30 O         129.5733  137.5722  156.7045 O.2     1  UNL1       -0.2264
     31 H         130.1010  140.1121  159.0326 H       1  UNL1        0.1527
     32 O         128.1472  138.1507  158.7977 O.3     1  UNL1       -0.4306
     33 C         128.0987  136.8943  159.6155 C.3     1  UNL1        0.2573
@<TRIPOS>BOND
     1    17    18    1
     2    18    11    1
     3    11    12    1
     4    12    13    1
     5    13    14    1
     6    14     1    1
     7     1     2    2
     8     2     3    1
     9     3     4    2
    10     4     5    1
    11     5    19    1
    12    19    20    2
    13    19    21    1
    14    21    22    1
    15    21    23    1
    16    23    24    1
    17    24    25    1
    18    25    28    1
    19    28    29   am
    20    29    30    2
    21    29    32    1
    22    32    33    1
    23    25    26    1
    24    26    27    1
    25     5     6    2
    26     6     7    1
    27     7     8    1
    28     8     9    2
    29     9    10    1
    30    14    15    1
    31    15    16    1
    32    16    11    1
    33     9     1    1
    34     7     3    1
    35    27    21    1
    36    28    31    1
@<TRIPOS>MOLECULE
*****
 33 36 0 0 0
SMALL
GASTEIGER

@<TRIPOS>ATOM
      1 C         140.1153  142.3366  163.7817 C.2     1  UNL1        0.0472
      2 C         140.4554  141.5458  162.5532 C.2     1  UNL1        0.0610
      3 C         139.7601  141.8385  161.2567 C.2     1  UNL1        0.2253
      4 N         139.8849  141.2302  159.8913 N.2     1  UNL1       -0.0319
      5 C         138.9268  141.9376  158.9794 C.2     1  UNL1        0.4061
      6 N         138.2097  142.9831  159.7813 N.2     1  UNL1       -0.0486
      7 C         138.7248  142.9218  161.1887 C.3     1  UNL1        0.3014
      8 C         138.3848  143.7124  162.4173 C.2     1  UNL1        0.0318
      9 C         139.0801  143.4198  163.7137 C.2     1  UNL1       -0.0081
     10 C         138.7400  144.2105  164.9423 C.3     1  UNL1        0.0321
     11 N         142.2013  141.4587  167.6712 N.3     1  UNL1       -0.2698
     12 C         142.8985  142.2569  166.6098 C.3     1  UNL1        0.0938
     13 C         142.2032  142.5495  165.3133 C.3     1  UNL1        0.1081
     14 N         140.8107  142.0439  165.0783 N.pl3   1  UNL1       -0.3048
     15 C         140.1135  141.2457  166.1397 C.3     1  UNL1        0.1081
     16 C         140.8088  140.9531  167.4362 C.3     1  UNL1        0.0938
     17 C         143.4089  142.2928  169.8151 C.3     1  UNL1        0.0188
     18 C         142.8966  141.1660  168.9677 C.3     1  UNL1        0.0722
     19 C         138.7216  141.6501  157.5216 C.2     1  UNL1        0.2592
     20 O         139.1648  140.3376  156.9464 O.2     1  UNL1       -0.2832
     21 C         138.0732  142.6751  156.6390 C.3     1  UNL1        0.0634
     22 C         136.9292  141.7209  156.8139 C.3     1  UNL1        0.0080
     23 C         139.4425  143.2734  156.7705 C.3     1  UNL1        0.0092
     24 C         139.7660  144.5652  156.0803 C.3     1  UNL1        0.0201
     25 C         138.7202  145.2588  155.2584 C.3     1  UNL1        0.0748
     26 C         137.3511  144.6605  155.1268 C.3     1  UNL1        0.0201
     27 C         137.0275  143.3686  155.8171 C.3     1  UNL1        0.0092
     28 N         139.0438  146.5506  154.5681 N.am    1  UNL1       -0.2723
     29 C         139.1185  147.8242  155.3570 C.2     1  UNL1        0.4017
     30 O         138.8697  147.8060  156.8361 O.2     1  UNL1       -0.2264
     31 H         139.2071  146.5626  153.5973 H       1  UNL1        0.1527
     32 O         139.4421  149.1161  154.6668 O.3     1  UNL1       -0.4306
     33 C         138.8547  150.4020  155.1683 C.3     1  UNL1        0.2573
@<TRIPOS>BOND
     1    17    18    1
     2    18    11    1
     3    11    12    1
     4    12    13    1
     5    13    14    1
     6    14     1    1
     7     1     2    2
     8     2     3    1
     9     3     4    2
    10     4     5    1
    11     5    19    1
    12    19    20    2
    13    19    21    1
    14    21    22    1
    15    21    23    1
    16    23    24    1
    17    24    25    1
    18    25    28    1
    19    28    29   am
    20    29    30    2
    21    29    32    1
    22    32    33    1
    23    25    26    1
    24    26    27    1
    25     5     6    2
    26     6     7    1
    27     7     8    1
    28     8     9    2
    29     9    10    1
    30    14    15    1
    31    15    16    1
    32    16    11    1
    33     9     1    1
    34     7     3    1
    35    27    21    1
    36    28    31    1
@<TRIPOS>MOLECULE
*****
 33 36 0 0 0
SMALL
GASTEIGER

@<TRIPOS>ATOM
      1 C         140.2040  143.3073  164.3938 C.2     1  UNL1        0.0472
      2 C         140.9764  142.9895  163.1477 C.2     1  UNL1        0.0610
      3 C         140.7926  143.8276  161.9173 C.2     1  UNL1        0.2253
      4 N         141.4113  143.7561  160.5527 N.2     1  UNL1       -0.0319
      5 C         140.8376  144.8677  159.7250 C.2     1  UNL1        0.4061
      6 N         139.8644  145.6262  160.5780 N.2     1  UNL1       -0.0486
      7 C         139.8366  144.9833  161.9330 C.3     1  UNL1        0.3014
      8 C         139.0643  145.3010  163.1790 C.2     1  UNL1        0.0318
      9 C         139.2480  144.4629  164.4094 C.2     1  UNL1       -0.0081
     10 C         138.4757  144.7807  165.6554 C.3     1  UNL1        0.0321
     11 N         140.7552  140.7931  168.0851 N.3     1  UNL1       -0.2698
     12 C         141.6206  141.9978  167.8621 C.3     1  UNL1        0.0938
     13 C         141.4369  142.8358  166.6317 C.3     1  UNL1        0.1081
     14 N         140.3878  142.4692  165.6243 N.pl3   1  UNL1       -0.3048
     15 C         139.5223  141.2645  165.8473 C.3     1  UNL1        0.1081
     16 C         139.7061  140.4264  167.0777 C.3     1  UNL1        0.0938
     17 C         142.2474  139.2653  169.5646 C.3     1  UNL1        0.0188
     18 C         140.9389  139.9550  169.3155 C.3     1  UNL1        0.0722
     19 C         141.1774  145.1681  158.2952 C.2     1  UNL1        0.2592
     20 O         142.4843  145.8216  157.9563 O.2     1  UNL1       -0.2832
     21 C         140.2103  144.8151  157.2043 C.3     1  UNL1        0.0634
     22 C         140.1018  146.3108  157.1745 C.3     1  UNL1        0.0080
     23 C         140.6546  143.4419  157.6130 C.3     1  UNL1        0.0092
     24 C         140.0942  142.2351  156.9204 C.3     1  UNL1        0.0201
     25 C         139.0894  142.4015  155.8192 C.3     1  UNL1        0.0748
     26 C         138.6451  143.7747  155.4106 C.3     1  UNL1        0.0201
     27 C         139.2055  144.9815  156.1031 C.3     1  UNL1        0.0092
     28 N         138.5290  141.1948  155.1266 N.am    1  UNL1       -0.2723
     29 C         137.5088  140.3396  155.8179 C.2     1  UNL1        0.4017
     30 O         137.0491  140.6912  157.2018 O.2     1  UNL1       -0.2264
     31 H         138.8307  140.9640  154.2184 H       1  UNL1        0.1527
     32 O         136.9483  139.1328  155.1255 O.3     1  UNL1       -0.4306
     33 C         135.6103  139.2085  154.4517 C.3     1  UNL1        0.2573
@<TRIPOS>BOND
     1    17    18    1
     2    18    11    1
     3    11    12    1
     4    12    13    1
     5    13    14    1
     6    14     1    1
     7     1     2    2
     8     2     3    1
     9     3     4    2
    10     4     5    1
    11     5    19    1
    12    19    20    2
    13    19    21    1
    14    21    22    1
    15    21    23    1
    16    23    24    1
    17    24    25    1
    18    25    28    1
    19    28    29   am
    20    29    30    2
    21    29    32    1
    22    32    33    1
    23    25    26    1
    24    26    27    1
    25     5     6    2
    26     6     7    1
    27     7     8    1
    28     8     9    2
    29     9    10    1
    30    14    15    1
    31    15    16    1
    32    16    11    1
    33     9     1    1
    34     7     3    1
    35    27    21    1
    36    28    31    1
@<TRIPOS>MOLECULE
*****
 33 36 0 0 0
SMALL
GASTEIGER

@<TRIPOS>ATOM
      1 C         140.4213  139.2759  161.4597 C.2     1  UNL1        0.0472
      2 C         141.7333  138.7639  160.9433 C.2     1  UNL1        0.0610
      3 C         141.8592  138.3331  159.5120 C.2     1  UNL1        0.2253
      4 N         143.0153  137.7903  158.7253 N.2     1  UNL1       -0.0319
      5 C         142.5437  137.5359  157.3243 C.2     1  UNL1        0.4061
      6 N         141.0963  137.9215  157.2451 N.2     1  UNL1       -0.0486
      7 C         140.6732  138.4141  158.5972 C.3     1  UNL1        0.3014
      8 C         139.3613  138.9261  159.1137 C.2     1  UNL1        0.0318
      9 C         139.2354  139.3570  160.5449 C.2     1  UNL1       -0.0081
     10 C         137.9233  139.8689  161.0613 C.3     1  UNL1        0.0321
     11 N         140.0434  140.5686  165.7535 N.3     1  UNL1       -0.2698
     12 C         140.4954  141.5490  164.7121 C.3     1  UNL1        0.0938
     13 C         140.6213  141.1181  163.2808 C.3     1  UNL1        0.1081
     14 N         140.2953  139.7068  162.8910 N.pl3   1  UNL1       -0.3048
     15 C         139.8434  138.7264  163.9324 C.3     1  UNL1        0.1081
     16 C         139.7174  139.1573  165.3637 C.3     1  UNL1        0.0938
     17 C         139.5229  140.0043  168.2355 C.3     1  UNL1        0.0188
     18 C         139.9175  140.9994  167.1847 C.3     1  UNL1        0.0722
     19 C         143.3739  136.9916  156.1997 C.2     1  UNL1        0.2592
     20 O         144.6127  137.7159  155.7632 O.2     1  UNL1       -0.2832
     21 C         142.9652  135.7229  155.5117 C.3     1  UNL1        0.0634
     22 C         142.7109  136.7097  154.4110 C.3     1  UNL1        0.0080
     23 C         143.3615  135.1767  156.8514 C.3     1  UNL1        0.0092
     24 C         143.2607  133.7045  157.1208 C.3     1  UNL1        0.0201
     25 C         142.7637  132.7785  156.0505 C.3     1  UNL1        0.0748
     26 C         142.3675  133.3247  154.7109 C.3     1  UNL1        0.0201
     27 C         142.4682  134.7969  154.4415 C.3     1  UNL1        0.0092
     28 N         142.6630  131.3064  156.3199 N.am    1  UNL1       -0.2723
     29 C         143.8724  130.4319  156.1695 C.2     1  UNL1        0.4017
     30 O         145.1825  131.0297  155.7495 O.2     1  UNL1       -0.2264
     31 H         141.8031  130.9141  156.5955 H       1  UNL1        0.1527
     32 O         143.7717  128.9597  156.4389 O.3     1  UNL1       -0.4306
     33 C         142.4296  128.2903  156.4552 C.3     1  UNL1        0.2573
@<TRIPOS>BOND
     1    17    18    1
     2    18    11    1
     3    11    12    1
     4    12    13    1
     5    13    14    1
     6    14     1    1
     7     1     2    2
     8     2     3    1
     9     3     4    2
    10     4     5    1
    11     5    19    1
    12    19    20    2
    13    19    21    1
    14    21    22    1
    15    21    23    1
    16    23    24    1
    17    24    25    1
    18    25    28    1
    19    28    29   am
    20    29    30    2
    21    29    32    1
    22    32    33    1
    23    25    26    1
    24    26    27    1
    25     5     6    2
    26     6     7    1
    27     7     8    1
    28     8     9    2
    29     9    10    1
    30    14    15    1
    31    15    16    1
    32    16    11    1
    33     9     1    1
    34     7     3    1
    35    27    21    1
    36    28    31    1
@<TRIPOS>MOLECULE
*****
 33 36 0 0 0
SMALL
GASTEIGER

@<TRIPOS>ATOM
      1 C         142.7786  140.0641  158.1746 C.2     1  UNL1        0.0472
      2 C         142.0430  140.4465  159.4247 C.2     1  UNL1        0.0610
      3 C         142.5194  141.6043  160.2508 C.2     1  UNL1        0.2253
      4 N         142.0026  142.2104  161.5219 N.2     1  UNL1       -0.0319
      5 C         142.8952  143.3604  161.8834 C.2     1  UNL1        0.4061
      6 N         143.9638  143.4650  160.8359 N.2     1  UNL1       -0.0486
      7 C         143.7315  142.3797  159.8269 C.3     1  UNL1        0.3014
      8 C         144.4671  141.9972  158.5768 C.2     1  UNL1        0.0318
      9 C         143.9906  140.8394  157.7507 C.2     1  UNL1       -0.0081
     10 C         144.7263  140.4570  156.5006 C.3     1  UNL1        0.0321
     11 N         141.3492  136.5907  155.6963 N.3     1  UNL1       -0.2698
     12 C         142.2793  136.3566  156.8496 C.3     1  UNL1        0.0938
     13 C         142.7557  137.5144  157.6757 C.3     1  UNL1        0.1081
     14 N         142.3021  138.9063  157.3485 N.pl3   1  UNL1       -0.3048
     15 C         141.3720  139.1403  156.1951 C.3     1  UNL1        0.1081
     16 C         140.8956  137.9825  155.3690 C.3     1  UNL1        0.0938
     17 C         141.8399  134.3702  154.4398 C.3     1  UNL1        0.0188
     18 C         140.8727  135.4329  154.8701 C.3     1  UNL1        0.0722
     19 C         142.7457  144.2496  163.0821 C.2     1  UNL1        0.2592
     20 O         143.7764  145.3008  163.3694 O.2     1  UNL1       -0.2832
     21 C         141.5653  144.0877  163.9935 C.3     1  UNL1        0.0634
     22 C         141.0152  145.0992  163.0321 C.3     1  UNL1        0.0080
     23 C         142.5254  143.1324  164.6384 C.3     1  UNL1        0.0092
     24 C         142.1141  142.3665  165.8608 C.3     1  UNL1        0.0201
     25 C         140.7427  142.5559  166.4383 C.3     1  UNL1        0.0748
     26 C         139.7827  143.5111  165.7934 C.3     1  UNL1        0.0201
     27 C         140.1940  144.2770  164.5710 C.3     1  UNL1        0.0092
     28 N         140.3314  141.7899  167.6606 N.am    1  UNL1       -0.2723
     29 C         139.6972  140.4378  167.5203 C.2     1  UNL1        0.4017
     30 O         139.4744  139.8517  166.1577 O.2     1  UNL1       -0.2264
     31 H         140.4776  142.1746  168.5550 H       1  UNL1        0.1527
     32 O         139.2859  139.6718  168.7427 O.3     1  UNL1       -0.4306
     33 C         138.9550  140.4029  170.0099 C.3     1  UNL1        0.2573
@<TRIPOS>BOND
     1    17    18    1
     2    18    11    1
     3    11    12    1
     4    12    13    1
     5    13    14    1
     6    14     1    1
     7     1     2    2
     8     2     3    1
     9     3     4    2
    10     4     5    1
    11     5    19    1
    12    19    20    2
    13    19    21    1
    14    21    22    1
    15    21    23    1
    16    23    24    1
    17    24    25    1
    18    25    28    1
    19    28    29   am
    20    29    30    2
    21    29    32    1
    22    32    33    1
    23    25    26    1
    24    26    27    1
    25     5     6    2
    26     6     7    1
    27     7     8    1
    28     8     9    2
    29     9    10    1
    30    14    15    1
    31    15    16    1
    32    16    11    1
    33     9     1    1
    34     7     3    1
    35    27    21    1
    36    28    31    1
@<TRIPOS>MOLECULE
*****
 33 36 0 0 0
SMALL
GASTEIGER

@<TRIPOS>ATOM
      1 C         142.7403  138.4254  157.4044 C.2     1  UNL1        0.0472
      2 C         143.0001  137.9913  158.8165 C.2     1  UNL1        0.0610
      3 C         143.4357  138.9958  159.8418 C.2     1  UNL1        0.2253
      4 N         143.7632  138.8645  161.2997 N.2     1  UNL1       -0.0319
      5 C         144.1415  140.2219  161.8138 C.2     1  UNL1        0.4061
      6 N         144.0479  141.1921  160.6737 N.2     1  UNL1       -0.0486
      7 C         143.6117  140.4343  159.4549 C.3     1  UNL1        0.3014
      8 C         143.3519  140.8684  158.0428 C.2     1  UNL1        0.0318
      9 C         142.9162  139.8639  157.0175 C.2     1  UNL1       -0.0081
     10 C         142.6565  140.2980  155.6053 C.3     1  UNL1        0.0321
     11 N         141.4332  135.4119  154.3285 N.3     1  UNL1       -0.2698
     12 C         140.4081  136.1687  155.1199 C.3     1  UNL1        0.0938
     13 C         140.8438  137.1732  156.1451 C.3     1  UNL1        0.1081
     14 N         142.3046  137.4209  156.3790 N.pl3   1  UNL1       -0.3048
     15 C         143.3297  136.6640  155.5877 C.3     1  UNL1        0.1081
     16 C         142.8940  135.6595  154.5624 C.3     1  UNL1        0.0938
     17 C         141.5991  133.0332  153.2968 C.3     1  UNL1        0.0188
     18 C         140.9976  134.4074  153.3033 C.3     1  UNL1        0.0722
     19 C         144.5430  140.5512  163.2211 C.2     1  UNL1        0.2592
     20 O         145.6570  141.5231  163.4752 O.2     1  UNL1       -0.2832
     21 C         143.8306  139.9088  164.3742 C.3     1  UNL1        0.0634
     22 C         145.1818  139.2731  164.5161 C.3     1  UNL1        0.0080
     23 C         142.7268  140.7675  163.8318 C.3     1  UNL1        0.0092
     24 C         141.3798  140.7631  164.4918 C.3     1  UNL1        0.0201
     25 C         141.1366  139.8998  165.6942 C.3     1  UNL1        0.0748
     26 C         142.2404  139.0411  166.2365 C.3     1  UNL1        0.0201
     27 C         143.5874  139.0456  165.5765 C.3     1  UNL1        0.0092
     28 N         139.7896  139.8954  166.3542 N.am    1  UNL1       -0.2723
     29 C         138.7943  138.8242  166.0201 C.2     1  UNL1        0.4017
     30 O         139.1459  137.7574  165.0259 O.2     1  UNL1       -0.2264
     31 H         139.5588  140.5956  167.0067 H       1  UNL1        0.1527
     32 O         137.4472  138.8197  166.6800 O.3     1  UNL1       -0.4306
     33 C         137.0038  137.6251  167.4714 C.3     1  UNL1        0.2573
@<TRIPOS>BOND
     1    17    18    1
     2    18    11    1
     3    11    12    1
     4    12    13    1
     5    13    14    1
     6    14     1    1
     7     1     2    2
     8     2     3    1
     9     3     4    2
    10     4     5    1
    11     5    19    1
    12    19    20    2
    13    19    21    1
    14    21    22    1
    15    21    23    1
    16    23    24    1
    17    24    25    1
    18    25    28    1
    19    28    29   am
    20    29    30    2
    21    29    32    1
    22    32    33    1
    23    25    26    1
    24    26    27    1
    25     5     6    2
    26     6     7    1
    27     7     8    1
    28     8     9    2
    29     9    10    1
    30    14    15    1
    31    15    16    1
    32    16    11    1
    33     9     1    1
    34     7     3    1
    35    27    21    1
    36    28    31    1
@<TRIPOS>MOLECULE
*****
 33 36 0 0 0
SMALL
GASTEIGER

@<TRIPOS>ATOM
      1 C         142.4793  140.2017  158.5346 C.2     1  UNL1        0.0472
      2 C         141.5965  140.5221  159.7043 C.2     1  UNL1        0.0610
      3 C         141.9080  141.7007  160.5783 C.2     1  UNL1        0.2253
      4 N         141.2253  142.2585  161.7918 N.2     1  UNL1       -0.0319
      5 C         141.9976  143.4615  162.2461 C.2     1  UNL1        0.4061
      6 N         143.1576  143.6471  161.3134 N.2     1  UNL1       -0.0486
      7 C         143.1022  142.5588  160.2826 C.3     1  UNL1        0.3014
      8 C         143.9849  142.2384  159.1129 C.2     1  UNL1        0.0318
      9 C         143.6734  141.0598  158.2389 C.2     1  UNL1       -0.0081
     10 C         144.5562  140.7395  157.0692 C.3     1  UNL1        0.0321
     11 N         141.5449  136.6659  155.9125 N.3     1  UNL1       -0.2698
     12 C         140.9236  137.9999  155.6221 C.3     1  UNL1        0.0938
     13 C         141.2351  139.1785  156.4961 C.3     1  UNL1        0.1081
     14 N         142.1678  139.0230  157.6605 N.pl3   1  UNL1       -0.3048
     15 C         142.7891  137.6890  157.9509 C.3     1  UNL1        0.1081
     16 C         142.4776  136.5104  157.0769 C.3     1  UNL1        0.0938
     17 C         142.1235  135.1592  153.8765 C.3     1  UNL1        0.0188
     18 C         141.2334  135.4872  155.0386 C.3     1  UNL1        0.0722
     19 C         141.6678  144.3270  163.4260 C.2     1  UNL1        0.2592
     20 O         141.9414  145.8009  163.3748 O.2     1  UNL1       -0.2832
     21 C         141.0643  143.7185  164.6571 C.3     1  UNL1        0.0634
     22 C         139.9353  144.6067  164.2253 C.3     1  UNL1        0.0080
     23 C         142.4029  143.0417  164.6614 C.3     1  UNL1        0.0092
     24 C         142.7460  142.0648  165.7467 C.3     1  UNL1        0.0201
     25 C         141.7504  141.7648  166.8279 C.3     1  UNL1        0.0748
     26 C         140.4119  142.4417  166.8236 C.3     1  UNL1        0.0201
     27 C         140.0688  143.4186  165.7382 C.3     1  UNL1        0.0092
     28 N         142.0935  140.7879  167.9133 N.am    1  UNL1       -0.2723
     29 C         142.9485  141.2193  169.0677 C.2     1  UNL1        0.4017
     30 O         143.4605  142.6276  169.1368 O.2     1  UNL1       -0.2264
     31 H         141.7575  139.8636  167.8679 H       1  UNL1        0.1527
     32 O         143.2916  140.2425  170.1531 O.3     1  UNL1       -0.4306
     33 C         142.6186  138.9027  170.1967 C.3     1  UNL1        0.2573
@<TRIPOS>BOND
     1    17    18    1
     2    18    11    1
     3    11    12    1
     4    12    13    1
     5    13    14    1
     6    14     1    1
     7     1     2    2
     8     2     3    1
     9     3     4    2
    10     4     5    1
    11     5    19    1
    12    19    20    2
    13    19    21    1
    14    21    22    1
    15    21    23    1
    16    23    24    1
    17    24    25    1
    18    25    28    1
    19    28    29   am
    20    29    30    2
    21    29    32    1
    22    32    33    1
    23    25    26    1
    24    26    27    1
    25     5     6    2
    26     6     7    1
    27     7     8    1
    28     8     9    2
    29     9    10    1
    30    14    15    1
    31    15    16    1
    32    16    11    1
    33     9     1    1
    34     7     3    1
    35    27    21    1
    36    28    31    1
