@<TRIPOS>MOLECULE
*****
 35 38 0 0 0
SMALL
GASTEIGER

@<TRIPOS>ATOM
      1 C         140.5934  140.6749  162.5899 C.ar    1  UNL1        0.2437
      2 C         139.2601  141.2324  162.1877 C.ar    1  UNL1        0.0608
      3 C         139.1671  142.2102  161.0541 C.ar    1  UNL1        0.0258
      4 C         140.4075  142.6306  160.3226 C.ar    1  UNL1        0.1060
      5 N         141.7406  142.0731  160.7248 N.ar    1  UNL1       -0.1450
      6 N         141.8336  141.0953  161.8585 N.ar    1  UNL1       -0.1103
      7 C         140.3145  143.6084  159.1889 C.ar    1  UNL1        0.0532
      8 C         139.5001  143.2735  157.9745 C.ar    1  UNL1        0.0061
      9 C         139.4072  144.2514  156.8408 C.ar    1  UNL1        0.0194
     10 C         140.1286  145.5641  156.9216 C.ar    1  UNL1        0.0859
     11 C         140.9429  145.8989  158.1360 C.ar    1  UNL1        0.0558
     12 C         141.0358  144.9211  159.2696 C.ar    1  UNL1        0.1366
     13 O         141.8502  145.2560  160.4841 O.3     1  UNL1       -0.5054
     14 H         142.3008  146.0760  160.5345 H       1  UNL1        0.2922
     15 N         140.0356  146.5419  155.7879 N.ar    1  UNL1       -0.2280
     16 C         139.2241  147.8034  155.7759 C.ar    1  UNL1        0.1020
     17 C         139.4248  148.4711  154.4478 C.ar    1  UNL1        0.0431
     18 C         140.3604  147.6223  153.6389 C.ar    1  UNL1        0.1221
     19 N         140.7379  146.4300  154.4672 N.ar    1  UNL1       -0.1635
     20 O         140.6863  139.6971  163.7236 O.3     1  UNL1       -0.4629
     21 C         142.7068  142.1904  167.7831 C.3     1  UNL1        0.0161
     22 C         142.1395  141.5656  166.9091 C.3     1  UNL1        0.0491
     23 C         143.3495  142.1944  166.2840 C.3     1  UNL1        0.0161
     24 C         141.9928  141.0697  165.5011 C.3     1  UNL1        0.0583
     25 C         140.8330  140.1930  165.1317 C.3     1  UNL1        0.1702
     26 C         139.8200  139.8123  166.1703 C.3     1  UNL1        0.0583
     27 C         139.9667  140.3083  167.5783 C.3     1  UNL1        0.0491
     28 C         138.7058  139.5073  167.7144 C.3     1  UNL1        0.0161
     29 C         139.6755  140.5260  169.0335 C.3     1  UNL1        0.0161
     30 N         141.1265  141.1849  167.9477 N.3     1  UNL1       -0.2704
     31 C         141.2732  141.6808  169.3557 C.3     1  UNL1        0.1765
     32 C         140.9994  143.1204  169.6762 C.3     1  UNL1        0.4121
     33 F         140.7256  144.5600  169.9967 F       1  UNL1       -0.1685
     34 F         140.1109  143.2865  168.8642 F       1  UNL1       -0.1685
     35 F         142.0708  143.0906  170.7255 F       1  UNL1       -0.1685
@<TRIPOS>BOND
     1    21    22    1
     2    22    23    1
     3    22    24    1
     4    24    25    1
     5    25    20    1
     6    20     1    1
     7     1     2   ar
     8     2     3   ar
     9     3     4   ar
    10     4     7    1
    11     7     8   ar
    12     8     9   ar
    13     9    10   ar
    14    10    15    1
    15    15    16   ar
    16    16    17   ar
    17    17    18   ar
    18    18    19   ar
    19    10    11   ar
    20    11    12   ar
    21    12    13    1
    22     4     5   ar
    23     5     6   ar
    24    25    26    1
    25    26    27    1
    26    27    28    1
    27    27    29    1
    28    27    30    1
    29    30    31    1
    30    31    32    1
    31    32    33    1
    32    32    34    1
    33    32    35    1
    34    30    22    1
    35     6     1   ar
    36    12     7   ar
    37    19    15   ar
    38    13    14    1
@<TRIPOS>MOLECULE
*****
 35 38 0 0 0
SMALL
GASTEIGER

@<TRIPOS>ATOM
      1 C         140.5106  140.6714  162.6226 C.ar    1  UNL1        0.2437
      2 C         139.1865  141.2052  162.1623 C.ar    1  UNL1        0.0608
      3 C         139.1245  142.1694  161.0149 C.ar    1  UNL1        0.0258
      4 C         140.3866  142.5998  160.3279 C.ar    1  UNL1        0.1060
      5 N         141.7107  142.0661  160.7883 N.ar    1  UNL1       -0.1450
      6 N         141.7727  141.1018  161.9357 N.ar    1  UNL1       -0.1103
      7 C         140.3247  143.5640  159.1805 C.ar    1  UNL1        0.0532
      8 C         139.5279  143.2227  157.9562 C.ar    1  UNL1        0.0061
      9 C         139.4660  144.1869  156.8088 C.ar    1  UNL1        0.0194
     10 C         140.2007  145.4925  156.8858 C.ar    1  UNL1        0.0859
     11 C         140.9973  145.8337  158.1100 C.ar    1  UNL1        0.0558
     12 C         141.0593  144.8695  159.2574 C.ar    1  UNL1        0.1366
     13 O         141.8560  145.2109  160.4817 O.3     1  UNL1       -0.5054
     14 H         142.3149  146.0264  160.5297 H       1  UNL1        0.2922
     15 N         140.1387  146.4567  155.7384 N.ar    1  UNL1       -0.2280
     16 C         139.2672  147.6748  155.6565 C.ar    1  UNL1        0.1020
     17 C         139.5272  148.3430  154.3389 C.ar    1  UNL1        0.0431
     18 C         140.5594  147.5379  153.6066 C.ar    1  UNL1        0.1221
     19 N         140.9373  146.3721  154.4715 N.ar    1  UNL1       -0.1635
     20 O         140.5726  139.7072  163.7700 O.3     1  UNL1       -0.4629
     21 C         139.7926  140.4732  168.8280 C.3     1  UNL1        0.0161
     22 C         140.0810  140.3655  167.6527 C.3     1  UNL1        0.0491
     23 C         138.8155  139.5890  167.8668 C.3     1  UNL1        0.0161
     24 C         139.8469  139.8600  166.2600 C.3     1  UNL1        0.0583
     25 C         140.8068  140.2128  165.1627 C.3     1  UNL1        0.1702
     26 C         142.0009  141.0712  165.4581 C.3     1  UNL1        0.0583
     27 C         142.2350  141.5767  166.8508 C.3     1  UNL1        0.0491
     28 C         143.4191  142.1777  166.1531 C.3     1  UNL1        0.0161
     29 C         142.8803  142.2910  168.0012 C.3     1  UNL1        0.0161
     30 N         141.2750  141.2239  167.9481 N.3     1  UNL1       -0.2704
     31 C         141.5092  141.7295  169.3408 C.3     1  UNL1        0.1765
     32 C         140.6899  142.8676  169.8732 C.3     1  UNL1        0.4121
     33 F         139.8705  144.0056  170.4056 F       1  UNL1       -0.1685
     34 F         140.4721  143.4054  168.8056 F       1  UNL1       -0.1685
     35 F         140.8601  142.3384  171.2664 F       1  UNL1       -0.1685
@<TRIPOS>BOND
     1    21    22    1
     2    22    23    1
     3    22    24    1
     4    24    25    1
     5    25    20    1
     6    20     1    1
     7     1     2   ar
     8     2     3   ar
     9     3     4   ar
    10     4     7    1
    11     7     8   ar
    12     8     9   ar
    13     9    10   ar
    14    10    15    1
    15    15    16   ar
    16    16    17   ar
    17    17    18   ar
    18    18    19   ar
    19    10    11   ar
    20    11    12   ar
    21    12    13    1
    22     4     5   ar
    23     5     6   ar
    24    25    26    1
    25    26    27    1
    26    27    28    1
    27    27    29    1
    28    27    30    1
    29    30    31    1
    30    31    32    1
    31    32    33    1
    32    32    34    1
    33    32    35    1
    34    30    22    1
    35     6     1   ar
    36    12     7   ar
    37    19    15   ar
    38    13    14    1
@<TRIPOS>MOLECULE
*****
 35 38 0 0 0
SMALL
GASTEIGER

@<TRIPOS>ATOM
      1 C         142.5756  138.5302  158.5290 C.ar    1  UNL1        0.2437
      2 C         141.2531  138.3328  159.2088 C.ar    1  UNL1        0.0608
      3 C         141.1442  138.4871  160.6969 C.ar    1  UNL1        0.0258
      4 C         142.3579  138.8389  161.5052 C.ar    1  UNL1        0.1060
      5 N         143.6804  139.0363  160.8254 N.ar    1  UNL1       -0.1450
      6 N         143.7892  138.8820  159.3373 N.ar    1  UNL1       -0.1103
      7 C         142.2491  138.9932  162.9932 C.ar    1  UNL1        0.0532
      8 C         140.8991  139.0417  163.6455 C.ar    1  UNL1        0.0061
      9 C         140.7903  139.1961  165.1335 C.ar    1  UNL1        0.0194
     10 C         142.0314  139.3019  165.9694 C.ar    1  UNL1        0.0859
     11 C         143.3813  139.2534  165.3171 C.ar    1  UNL1        0.0558
     12 C         143.4901  139.0990  163.8290 C.ar    1  UNL1        0.1366
     13 O         144.8401  139.0505  163.1768 O.3     1  UNL1       -0.5054
     14 H         145.6153  139.1166  163.6989 H       1  UNL1        0.2922
     15 N         141.9226  139.4562  167.4574 N.ar    1  UNL1       -0.2280
     16 C         140.7445  140.0102  168.2026 C.ar    1  UNL1        0.1020
     17 C         141.0665  139.9800  169.6673 C.ar    1  UNL1        0.0431
     18 C         142.4436  139.4074  169.8274 C.ar    1  UNL1        0.1221
     19 N         142.9727  139.0837  168.4616 N.ar    1  UNL1       -0.1635
     20 O         142.6845  138.3759  157.0410 O.3     1  UNL1       -0.4629
     21 C         143.2589  133.2495  156.6303 C.3     1  UNL1        0.0161
     22 C         143.0817  134.4513  156.6057 C.3     1  UNL1        0.0491
     23 C         143.6086  134.1133  157.9690 C.3     1  UNL1        0.0161
     24 C         143.1066  135.8187  157.2217 C.3     1  UNL1        0.0583
     25 C         142.6596  137.0084  156.4250 C.3     1  UNL1        0.1702
     26 C         142.1876  136.8307  155.0123 C.3     1  UNL1        0.0583
     27 C         142.1627  135.4632  154.3964 C.3     1  UNL1        0.0491
     28 C         141.6446  136.2760  153.2471 C.3     1  UNL1        0.0161
     29 C         141.9579  134.3780  153.3813 C.3     1  UNL1        0.0161
     30 N         142.6098  134.2735  155.1931 N.3     1  UNL1       -0.2704
     31 C         142.5849  132.9060  154.5771 C.3     1  UNL1        0.1765
     32 C         141.3670  132.0418  154.7185 C.3     1  UNL1        0.4121
     33 F         140.1492  131.1776  154.8600 F       1  UNL1       -0.1685
     34 F         140.7514  132.7748  155.4670 F       1  UNL1       -0.1685
     35 F         141.9831  131.0241  153.8050 F       1  UNL1       -0.1685
@<TRIPOS>BOND
     1    21    22    1
     2    22    23    1
     3    22    24    1
     4    24    25    1
     5    25    20    1
     6    20     1    1
     7     1     2   ar
     8     2     3   ar
     9     3     4   ar
    10     4     7    1
    11     7     8   ar
    12     8     9   ar
    13     9    10   ar
    14    10    15    1
    15    15    16   ar
    16    16    17   ar
    17    17    18   ar
    18    18    19   ar
    19    10    11   ar
    20    11    12   ar
    21    12    13    1
    22     4     5   ar
    23     5     6   ar
    24    25    26    1
    25    26    27    1
    26    27    28    1
    27    27    29    1
    28    27    30    1
    29    30    31    1
    30    31    32    1
    31    32    33    1
    32    32    34    1
    33    32    35    1
    34    30    22    1
    35     6     1   ar
    36    12     7   ar
    37    19    15   ar
    38    13    14    1
@<TRIPOS>MOLECULE
*****
 35 38 0 0 0
SMALL
GASTEIGER

@<TRIPOS>ATOM
      1 C         140.6484  139.3086  159.2608 C.ar    1  UNL1        0.2437
      2 C         141.7677  138.3428  159.0068 C.ar    1  UNL1        0.0608
      3 C         142.9959  138.7943  158.2734 C.ar    1  UNL1        0.0258
      4 C         143.1046  140.2115  157.7941 C.ar    1  UNL1        0.1060
      5 N         141.9853  141.1772  158.0481 N.ar    1  UNL1       -0.1450
      6 N         140.7572  140.7257  158.7815 N.ar    1  UNL1       -0.1103
      7 C         144.3328  140.6630  157.0607 C.ar    1  UNL1        0.0532
      8 C         144.7759  139.9397  155.8235 C.ar    1  UNL1        0.0061
      9 C         146.0041  140.3912  155.0902 C.ar    1  UNL1        0.0194
     10 C         146.7891  141.5660  155.5940 C.ar    1  UNL1        0.0859
     11 C         146.3459  142.2892  156.8311 C.ar    1  UNL1        0.0558
     12 C         145.1178  141.8377  157.5645 C.ar    1  UNL1        0.1366
     13 O         144.6746  142.5610  158.8017 O.3     1  UNL1       -0.5054
     14 H         145.1650  143.2948  159.1164 H       1  UNL1        0.2922
     15 N         148.0172  142.0175  154.8606 N.ar    1  UNL1       -0.2280
     16 C         149.4320  141.6568  155.2045 C.ar    1  UNL1        0.1020
     17 C         150.3354  142.3253  154.2111 C.ar    1  UNL1        0.0431
     18 C         149.4789  143.0992  153.2531 C.ar    1  UNL1        0.1221
     19 N         148.0462  142.9089  153.6546 N.ar    1  UNL1       -0.1635
     20 O         139.4202  138.8571  159.9942 O.3     1  UNL1       -0.4629
     21 C         140.3701  137.8900  164.9883 C.3     1  UNL1        0.0161
     22 C         140.0691  138.2106  163.8557 C.3     1  UNL1        0.0491
     23 C         141.0330  137.0665  163.7461 C.3     1  UNL1        0.0161
     24 C         140.1440  138.0751  162.3637 C.3     1  UNL1        0.0583
     25 C         139.3453  138.9927  161.4862 C.3     1  UNL1        0.1702
     26 C         138.4717  140.0459  162.1007 C.3     1  UNL1        0.0583
     27 C         138.3968  140.1814  163.5926 C.3     1  UNL1        0.0491
     28 C         137.4590  141.2785  163.1841 C.3     1  UNL1        0.0161
     29 C         137.9962  140.6979  164.9427 C.3     1  UNL1        0.0161
     30 N         139.1955  139.2638  164.4701 N.3     1  UNL1       -0.2704
     31 C         139.1206  139.3994  165.9622 C.3     1  UNL1        0.1765
     32 C         138.0876  138.6330  166.7339 C.3     1  UNL1        0.4121
     33 F         137.0546  137.8667  167.5057 F       1  UNL1       -0.1685
     34 F         137.7352  137.9050  165.8272 F       1  UNL1       -0.1685
     35 F         138.3991  139.4444  167.9565 F       1  UNL1       -0.1685
@<TRIPOS>BOND
     1    21    22    1
     2    22    23    1
     3    22    24    1
     4    24    25    1
     5    25    20    1
     6    20     1    1
     7     1     2   ar
     8     2     3   ar
     9     3     4   ar
    10     4     7    1
    11     7     8   ar
    12     8     9   ar
    13     9    10   ar
    14    10    15    1
    15    15    16   ar
    16    16    17   ar
    17    17    18   ar
    18    18    19   ar
    19    10    11   ar
    20    11    12   ar
    21    12    13    1
    22     4     5   ar
    23     5     6   ar
    24    25    26    1
    25    26    27    1
    26    27    28    1
    27    27    29    1
    28    27    30    1
    29    30    31    1
    30    31    32    1
    31    32    33    1
    32    32    34    1
    33    32    35    1
    34    30    22    1
    35     6     1   ar
    36    12     7   ar
    37    19    15   ar
    38    13    14    1
@<TRIPOS>MOLECULE
*****
 35 38 0 0 0
SMALL
GASTEIGER

@<TRIPOS>ATOM
      1 C         142.6397  138.4618  158.3330 C.ar    1  UNL1        0.2437
      2 C         141.2151  138.4151  158.8005 C.ar    1  UNL1        0.0608
      3 C         140.8923  138.6488  160.2466 C.ar    1  UNL1        0.0258
      4 C         141.9941  138.9292  161.2252 C.ar    1  UNL1        0.1060
      5 N         143.4186  138.9759  160.7577 N.ar    1  UNL1       -0.1450
      6 N         143.7414  138.7422  159.3116 N.ar    1  UNL1       -0.1103
      7 C         141.6712  139.1629  162.6713 C.ar    1  UNL1        0.0532
      8 C         141.7061  140.5537  163.2323 C.ar    1  UNL1        0.0061
      9 C         141.3832  140.7873  164.6784 C.ar    1  UNL1        0.0194
     10 C         141.0256  139.6303  165.5635 C.ar    1  UNL1        0.0859
     11 C         140.9908  138.2396  165.0025 C.ar    1  UNL1        0.0558
     12 C         141.3136  138.0059  163.5564 C.ar    1  UNL1        0.1366
     13 O         141.2788  136.6151  162.9954 O.3     1  UNL1       -0.5054
     14 H         141.0554  135.8924  163.5483 H       1  UNL1        0.2922
     15 N         140.7027  139.8640  167.0096 N.ar    1  UNL1       -0.2280
     16 C         139.3285  139.9205  167.6082 C.ar    1  UNL1        0.1020
     17 C         139.4739  140.1736  169.0795 C.ar    1  UNL1        0.0431
     18 C         140.9380  140.2735  169.3902 C.ar    1  UNL1        0.1221
     19 N         141.6974  140.0822  168.1109 N.ar    1  UNL1       -0.1635
     20 O         142.9626  138.2281  156.8869 O.3     1  UNL1       -0.4629
     21 C         142.0990  134.4776  153.4276 C.3     1  UNL1        0.0161
     22 C         142.3354  135.2656  154.3218 C.3     1  UNL1        0.0491
     23 C         141.8877  136.0686  153.1365 C.3     1  UNL1        0.0161
     24 C         142.4234  136.6485  154.8959 C.3     1  UNL1        0.0583
     25 C         142.8746  136.8451  156.3129 C.3     1  UNL1        0.1702
     26 C         143.2378  135.6586  157.1557 C.3     1  UNL1        0.0583
     27 C         143.1498  134.2757  156.5816 C.3     1  UNL1        0.0491
     28 C         143.6281  133.9529  157.9662 C.3     1  UNL1        0.0161
     29 C         143.2279  132.7806  156.4884 C.3     1  UNL1        0.0161
     30 N         142.6986  134.0791  155.1646 N.3     1  UNL1       -0.2704
     31 C         142.6107  132.6961  154.5906 C.3     1  UNL1        0.1765
     32 C         141.3166  131.9399  154.6509 C.3     1  UNL1        0.4121
     33 F         140.0226  131.1838  154.7113 F       1  UNL1       -0.1685
     34 F         140.7187  132.7259  155.3587 F       1  UNL1       -0.1685
     35 F         141.9014  130.8694  153.7780 F       1  UNL1       -0.1685
@<TRIPOS>BOND
     1    21    22    1
     2    22    23    1
     3    22    24    1
     4    24    25    1
     5    25    20    1
     6    20     1    1
     7     1     2   ar
     8     2     3   ar
     9     3     4   ar
    10     4     7    1
    11     7     8   ar
    12     8     9   ar
    13     9    10   ar
    14    10    15    1
    15    15    16   ar
    16    16    17   ar
    17    17    18   ar
    18    18    19   ar
    19    10    11   ar
    20    11    12   ar
    21    12    13    1
    22     4     5   ar
    23     5     6   ar
    24    25    26    1
    25    26    27    1
    26    27    28    1
    27    27    29    1
    28    27    30    1
    29    30    31    1
    30    31    32    1
    31    32    33    1
    32    32    34    1
    33    32    35    1
    34    30    22    1
    35     6     1   ar
    36    12     7   ar
    37    19    15   ar
    38    13    14    1
@<TRIPOS>MOLECULE
*****
 35 38 0 0 0
SMALL
GASTEIGER

@<TRIPOS>ATOM
      1 C         139.0492  140.5828  161.7208 C.ar    1  UNL1        0.2437
      2 C         140.2955  140.6048  160.8863 C.ar    1  UNL1        0.0608
      3 C         140.4557  141.6316  159.8046 C.ar    1  UNL1        0.0258
      4 C         139.3696  142.6363  159.5574 C.ar    1  UNL1        0.1060
      5 N         138.1234  142.6142  160.3918 N.ar    1  UNL1       -0.1450
      6 N         137.9632  141.5874  161.4735 N.ar    1  UNL1       -0.1103
      7 C         139.5298  143.6630  158.4756 C.ar    1  UNL1        0.0532
      8 C         138.9061  143.4384  157.1300 C.ar    1  UNL1        0.0061
      9 C         139.0663  144.4651  156.0483 C.ar    1  UNL1        0.0194
     10 C         139.8502  145.7165  156.3122 C.ar    1  UNL1        0.0859
     11 C         140.4739  145.9411  157.6577 C.ar    1  UNL1        0.0558
     12 C         140.3137  144.9143  158.7394 C.ar    1  UNL1        0.1366
     13 O         140.9375  145.1390  160.0850 O.3     1  UNL1       -0.5054
     14 H         141.4272  145.9206  160.2498 H       1  UNL1        0.2922
     15 N         140.0105  146.7432  155.2304 N.ar    1  UNL1       -0.2280
     16 C         139.3127  148.0694  155.1632 C.ar    1  UNL1        0.1020
     17 C         139.7676  148.7698  153.9172 C.ar    1  UNL1        0.0431
     18 C         140.7464  147.8766  153.2144 C.ar    1  UNL1        0.1221
     19 N         140.8965  146.6241  154.0260 N.ar    1  UNL1       -0.1635
     20 O         138.8890  139.5560  162.8026 O.3     1  UNL1       -0.4629
     21 C         138.6026  139.4534  167.9684 C.3     1  UNL1        0.0161
     22 C         138.7572  139.5703  166.7690 C.3     1  UNL1        0.0491
     23 C         137.7324  138.4947  166.9763 C.3     1  UNL1        0.0161
     24 C         138.4672  139.2084  165.3425 C.3     1  UNL1        0.0583
     25 C         139.1790  139.9180  164.2291 C.3     1  UNL1        0.1702
     26 C         140.1809  140.9896  164.5421 C.3     1  UNL1        0.0583
     27 C         140.4709  141.3515  165.9686 C.3     1  UNL1        0.0491
     28 C         141.3949  142.3014  165.2659 C.3     1  UNL1        0.0161
     29 C         141.0818  142.0433  167.1510 C.3     1  UNL1        0.0161
     30 N         139.7591  140.6419  167.0820 N.3     1  UNL1       -0.2704
     31 C         140.0491  141.0038  168.5086 C.3     1  UNL1        0.1765
     32 C         140.7844  140.0402  169.3922 C.3     1  UNL1        0.4121
     33 F         141.5198  139.0766  170.2758 F       1  UNL1       -0.1685
     34 F         141.5370  139.6053  168.5431 F       1  UNL1       -0.1685
     35 F         139.9388  140.4628  170.5568 F       1  UNL1       -0.1685
@<TRIPOS>BOND
     1    21    22    1
     2    22    23    1
     3    22    24    1
     4    24    25    1
     5    25    20    1
     6    20     1    1
     7     1     2   ar
     8     2     3   ar
     9     3     4   ar
    10     4     7    1
    11     7     8   ar
    12     8     9   ar
    13     9    10   ar
    14    10    15    1
    15    15    16   ar
    16    16    17   ar
    17    17    18   ar
    18    18    19   ar
    19    10    11   ar
    20    11    12   ar
    21    12    13    1
    22     4     5   ar
    23     5     6   ar
    24    25    26    1
    25    26    27    1
    26    27    28    1
    27    27    29    1
    28    27    30    1
    29    30    31    1
    30    31    32    1
    31    32    33    1
    32    32    34    1
    33    32    35    1
    34    30    22    1
    35     6     1   ar
    36    12     7   ar
    37    19    15   ar
    38    13    14    1
@<TRIPOS>MOLECULE
*****
 35 38 0 0 0
SMALL
GASTEIGER

@<TRIPOS>ATOM
      1 C         139.9907  144.9362  157.3290 C.ar    1  UNL1        0.2437
      2 C         141.2178  145.4795  157.9994 C.ar    1  UNL1        0.0608
      3 C         141.5114  145.1254  159.4271 C.ar    1  UNL1        0.0258
      4 C         140.5779  144.2280  160.1844 C.ar    1  UNL1        0.1060
      5 N         139.3510  143.6848  159.5140 N.ar    1  UNL1       -0.1450
      6 N         139.0574  144.0389  158.0863 N.ar    1  UNL1       -0.1103
      7 C         140.8715  143.8738  161.6121 C.ar    1  UNL1        0.0532
      8 C         141.2852  142.4767  161.9685 C.ar    1  UNL1        0.0061
      9 C         141.5788  142.1225  163.3962 C.ar    1  UNL1        0.0194
     10 C         141.4587  143.1656  164.4676 C.ar    1  UNL1        0.0859
     11 C         141.0451  144.5626  164.1112 C.ar    1  UNL1        0.0558
     12 C         140.7515  144.9168  162.6835 C.ar    1  UNL1        0.1366
     13 O         140.3379  146.3139  162.3271 O.3     1  UNL1       -0.5054
     14 H         140.2629  146.9654  162.9964 H       1  UNL1        0.2922
     15 N         141.7523  142.8114  165.8953 N.ar    1  UNL1       -0.2280
     16 C         143.0898  142.4185  166.4491 C.ar    1  UNL1        0.1020
     17 C         142.9241  142.1523  167.9160 C.ar    1  UNL1        0.0431
     18 C         141.4842  142.3807  168.2687 C.ar    1  UNL1        0.1221
     19 N         140.7600  142.7880  167.0199 N.ar    1  UNL1       -0.1635
     20 O         139.6971  145.2904  155.9013 O.3     1  UNL1       -0.4629
     21 C         140.3031  149.5237  152.9873 C.3     1  UNL1        0.0161
     22 C         140.1026  148.6053  153.7571 C.3     1  UNL1        0.0491
     23 C         140.8145  148.0328  152.5673 C.3     1  UNL1        0.0161
     24 C         140.1857  147.1659  154.1710 C.3     1  UNL1        0.0583
     25 C         139.6140  146.7298  155.4874 C.3     1  UNL1        0.1702
     26 C         138.9592  147.7331  156.3900 C.3     1  UNL1        0.0583
     27 C         138.8761  149.1724  155.9761 C.3     1  UNL1        0.0491
     28 C         138.1932  149.2450  157.3097 C.3     1  UNL1        0.0161
     29 C         138.5558  150.6370  156.0254 C.3     1  UNL1        0.0161
     30 N         139.4478  149.6085  154.6597 N.3     1  UNL1       -0.2704
     31 C         139.3647  151.0480  154.2459 C.3     1  UNL1        0.1765
     32 C         140.6082  151.8849  154.1888 C.3     1  UNL1        0.4121
     33 F         141.8517  152.7218  154.1316 F       1  UNL1       -0.1685
     34 F         141.2021  151.3296  155.0917 F       1  UNL1       -0.1685
     35 F         140.0223  152.6783  153.0586 F       1  UNL1       -0.1685
@<TRIPOS>BOND
     1    21    22    1
     2    22    23    1
     3    22    24    1
     4    24    25    1
     5    25    20    1
     6    20     1    1
     7     1     2   ar
     8     2     3   ar
     9     3     4   ar
    10     4     7    1
    11     7     8   ar
    12     8     9   ar
    13     9    10   ar
    14    10    15    1
    15    15    16   ar
    16    16    17   ar
    17    17    18   ar
    18    18    19   ar
    19    10    11   ar
    20    11    12   ar
    21    12    13    1
    22     4     5   ar
    23     5     6   ar
    24    25    26    1
    25    26    27    1
    26    27    28    1
    27    27    29    1
    28    27    30    1
    29    30    31    1
    30    31    32    1
    31    32    33    1
    32    32    34    1
    33    32    35    1
    34    30    22    1
    35     6     1   ar
    36    12     7   ar
    37    19    15   ar
    38    13    14    1
@<TRIPOS>MOLECULE
*****
 35 38 0 0 0
SMALL
GASTEIGER

@<TRIPOS>ATOM
      1 C         139.1583  138.5696  164.2885 C.ar    1  UNL1        0.2437
      2 C         138.6893  139.5951  163.2992 C.ar    1  UNL1        0.0608
      3 C         139.1635  139.5372  161.8773 C.ar    1  UNL1        0.0258
      4 C         140.1067  138.4540  161.4447 C.ar    1  UNL1        0.1060
      5 N         140.5757  137.4287  162.4340 N.ar    1  UNL1       -0.1450
      6 N         140.1014  137.4865  163.8559 N.ar    1  UNL1       -0.1103
      7 C         140.5810  138.3962  160.0229 C.ar    1  UNL1        0.0532
      8 C         139.6706  138.8253  158.9106 C.ar    1  UNL1        0.0061
      9 C         140.1448  138.7675  157.4887 C.ar    1  UNL1        0.0194
     10 C         141.5294  138.2806  157.1791 C.ar    1  UNL1        0.0859
     11 C         142.4397  137.8515  158.2913 C.ar    1  UNL1        0.0558
     12 C         141.9655  137.9093  159.7132 C.ar    1  UNL1        0.1366
     13 O         142.8759  137.4801  160.8255 O.3     1  UNL1       -0.5054
     14 H         143.7408  137.1760  160.6321 H       1  UNL1        0.2922
     15 N         142.0037  138.2228  155.7572 N.ar    1  UNL1       -0.2280
     16 C         143.0563  139.0969  155.1426 C.ar    1  UNL1        0.1020
     17 C         143.2117  138.6951  153.7058 C.ar    1  UNL1        0.0431
     18 C         142.2551  137.5726  153.4324 C.ar    1  UNL1        0.1221
     19 N         141.5085  137.2807  154.7002 N.ar    1  UNL1       -0.1635
     20 O         138.6841  138.6274  165.7104 O.3     1  UNL1       -0.4629
     21 C         142.1450  141.9858  167.5870 C.3     1  UNL1        0.0161
     22 C         141.2802  141.1961  167.2635 C.3     1  UNL1        0.0491
     23 C         142.1236  141.4452  166.0483 C.3     1  UNL1        0.0161
     24 C         140.5811  140.3104  166.2752 C.3     1  UNL1        0.0583
     25 C         139.3832  139.5132  166.6988 C.3     1  UNL1        0.1702
     26 C         138.8843  139.6017  168.1106 C.3     1  UNL1        0.0583
     27 C         139.5834  140.4874  169.0989 C.3     1  UNL1        0.0491
     28 C         138.4973  139.9307  169.9709 C.3     1  UNL1        0.0161
     29 C         139.9054  141.1798  170.3900 C.3     1  UNL1        0.0161
     30 N         140.7814  141.2846  168.6753 N.3     1  UNL1       -0.2704
     31 C         141.4805  142.1703  169.6637 C.3     1  UNL1        0.1765
     32 C         141.0302  143.5891  169.8490 C.3     1  UNL1        0.4121
     33 F         140.5799  145.0079  170.0343 F       1  UNL1       -0.1685
     34 F         139.9711  143.4861  169.2624 F       1  UNL1       -0.1685
     35 F         142.2922  143.8914  170.6013 F       1  UNL1       -0.1685
@<TRIPOS>BOND
     1    21    22    1
     2    22    23    1
     3    22    24    1
     4    24    25    1
     5    25    20    1
     6    20     1    1
     7     1     2   ar
     8     2     3   ar
     9     3     4   ar
    10     4     7    1
    11     7     8   ar
    12     8     9   ar
    13     9    10   ar
    14    10    15    1
    15    15    16   ar
    16    16    17   ar
    17    17    18   ar
    18    18    19   ar
    19    10    11   ar
    20    11    12   ar
    21    12    13    1
    22     4     5   ar
    23     5     6   ar
    24    25    26    1
    25    26    27    1
    26    27    28    1
    27    27    29    1
    28    27    30    1
    29    30    31    1
    30    31    32    1
    31    32    33    1
    32    32    34    1
    33    32    35    1
    34    30    22    1
    35     6     1   ar
    36    12     7   ar
    37    19    15   ar
    38    13    14    1
@<TRIPOS>MOLECULE
*****
 35 38 0 0 0
SMALL
GASTEIGER

@<TRIPOS>ATOM
      1 C         143.5090  139.1746  164.4303 C.ar    1  UNL1        0.2437
      2 C         142.5601  138.7909  163.3336 C.ar    1  UNL1        0.0608
      3 C         142.7611  139.3258  161.9467 C.ar    1  UNL1        0.0258
      4 C         143.9109  140.2444  161.6565 C.ar    1  UNL1        0.1060
      5 N         144.8597  140.6281  162.7531 N.ar    1  UNL1       -0.1450
      6 N         144.6587  140.0932  164.1400 N.ar    1  UNL1       -0.1103
      7 C         144.1119  140.7793  160.2696 C.ar    1  UNL1        0.0532
      8 C         143.7576  139.9350  159.0814 C.ar    1  UNL1        0.0061
      9 C         143.9585  140.4699  157.6945 C.ar    1  UNL1        0.0194
     10 C         144.5139  141.8491  157.4958 C.ar    1  UNL1        0.0859
     11 C         144.8682  142.6934  158.6839 C.ar    1  UNL1        0.0558
     12 C         144.6672  142.1584  160.0708 C.ar    1  UNL1        0.1366
     13 O         145.0216  143.0028  161.2590 O.3     1  UNL1       -0.5054
     14 H         145.3685  143.8643  161.1348 H       1  UNL1        0.2922
     15 N         144.7149  142.3840  156.1089 N.ar    1  UNL1       -0.2280
     16 C         145.9632  142.2566  155.2871 C.ar    1  UNL1        0.1020
     17 C         145.7227  142.9341  153.9706 C.ar    1  UNL1        0.0431
     18 C         144.3257  143.4803  153.9788 C.ar    1  UNL1        0.1221
     19 N         143.7028  143.1403  155.3003 N.ar    1  UNL1       -0.1635
     20 O         143.3080  138.6397  165.8172 O.3     1  UNL1       -0.4629
     21 C         140.1286  142.2450  167.7333 C.3     1  UNL1        0.0161
     22 C         140.8984  141.3643  167.4048 C.3     1  UNL1        0.0491
     23 C         140.4069  142.0105  166.1434 C.3     1  UNL1        0.0161
     24 C         141.6438  140.5514  166.3882 C.3     1  UNL1        0.0583
     25 C         142.5625  139.4526  166.8338 C.3     1  UNL1        0.1702
     26 C         142.7358  139.1667  168.2961 C.3     1  UNL1        0.0583
     27 C         141.9904  139.9796  169.3127 C.3     1  UNL1        0.0491
     28 C         142.7407  139.0512  170.2210 C.3     1  UNL1        0.0161
     29 C         141.5055  140.4701  170.6447 C.3     1  UNL1        0.0161
     30 N         141.0717  141.0784  168.8670 N.3     1  UNL1       -0.2704
     31 C         140.3262  141.8914  169.8837 C.3     1  UNL1        0.1765
     32 C         140.6770  143.3346  170.0934 C.3     1  UNL1        0.4121
     33 F         141.0278  144.7779  170.3032 F       1  UNL1       -0.1685
     34 F         141.7826  143.2929  169.5910 F       1  UNL1       -0.1685
     35 F         139.3451  143.5638  170.7441 F       1  UNL1       -0.1685
@<TRIPOS>BOND
     1    21    22    1
     2    22    23    1
     3    22    24    1
     4    24    25    1
     5    25    20    1
     6    20     1    1
     7     1     2   ar
     8     2     3   ar
     9     3     4   ar
    10     4     7    1
    11     7     8   ar
    12     8     9   ar
    13     9    10   ar
    14    10    15    1
    15    15    16   ar
    16    16    17   ar
    17    17    18   ar
    18    18    19   ar
    19    10    11   ar
    20    11    12   ar
    21    12    13    1
    22     4     5   ar
    23     5     6   ar
    24    25    26    1
    25    26    27    1
    26    27    28    1
    27    27    29    1
    28    27    30    1
    29    30    31    1
    30    31    32    1
    31    32    33    1
    32    32    34    1
    33    32    35    1
    34    30    22    1
    35     6     1   ar
    36    12     7   ar
    37    19    15   ar
    38    13    14    1
