@<TRIPOS>MOLECULE
*****
 39 44 0 0 0
SMALL
GASTEIGER

@<TRIPOS>ATOM
      1 C         141.1412  145.2021  159.9690 C.3     1  UNL1        0.0280
      2 C         140.4197  145.4938  161.2514 C.3     1  UNL1        0.0584
      3 C         139.4757  146.6567  161.3331 C.3     1  UNL1        0.0174
      4 C         141.8573  139.8644  169.0092 C.ar    1  UNL1        0.2057
      5 N         140.8938  141.0104  168.9178 N.ar    1  UNL1       -0.2121
      6 C         141.0003  141.5968  167.5413 C.ar    1  UNL1        0.1187
      7 C         140.2930  142.7431  166.8812 C.ar    1  UNL1        0.0178
      8 C         140.6150  143.1058  165.4617 C.ar    1  UNL1       -0.0225
      9 C         141.6442  142.3223  164.7025 C.ar    1  UNL1       -0.0154
     10 C         142.3516  141.1760  165.3625 C.ar    1  UNL1        0.0664
     11 BR        143.3809  140.3925  164.6032 Br      1  UNL1       -0.0461
     12 C         142.0296  140.8133  166.7820 C.ar    1  UNL1        0.1701
     13 O         142.5593  139.7426  167.6892 O.2     1  UNL1       -0.4379
     14 C         142.1121  142.5149  163.2903 C.3     1  UNL1        0.0439
     15 C         141.6660  143.5387  162.2888 C.3     1  UNL1        0.0768
     16 N         140.6422  144.6225  162.4520 N.3     1  UNL1       -0.2733
     17 C         139.8113  144.9505  163.6571 C.3     1  UNL1        0.0768
     18 C         139.7992  144.2755  164.9965 C.3     1  UNL1        0.0434
     19 C         143.1415  137.9338  170.1814 C.3     1  UNL1        0.0102
     20 C         142.0799  138.9931  170.2098 C.3     1  UNL1        0.0853
     21 C         140.3717  145.0754  158.6876 C.3     1  UNL1        0.0665
     22 S         139.8952  143.7292  158.2290 S.3     1  UNL1       -0.0756
     23 C         139.5070  142.6877  159.2363 C.ar    1  UNL1        0.1932
     24 N         138.1339  142.4767  159.8021 N.ar    1  UNL1       -0.1221
     25 N         138.2022  141.3330  160.7702 N.ar    1  UNL1       -0.1282
     26 C         139.6175  140.8371  160.8027 C.ar    1  UNL1        0.1669
     27 N         140.4238  141.6743  159.8548 N.ar    1  UNL1       -0.2884
     28 C         141.8898  141.5245  159.5745 C.3     1  UNL1        0.1340
     29 C         140.1353  139.7030  161.6368 C.ar    1  UNL1        0.0374
     30 C         141.1377  138.7463  161.0624 C.ar    1  UNL1        0.0031
     31 C         141.6556  137.6122  161.8965 C.ar    1  UNL1        0.0016
     32 C         141.1711  137.4349  163.3051 C.ar    1  UNL1        0.0191
     33 C         140.1687  138.3916  163.8794 C.ar    1  UNL1        0.0810
     34 N         139.6842  138.2143  165.2879 N.ar    1  UNL1       -0.2497
     35 C         138.6818  139.1710  165.8623 C.ar    1  UNL1        0.0593
     36 C         138.1974  138.9937  167.2708 C.3     1  UNL1        0.0521
     37 C         138.1640  140.3050  165.0282 C.ar    1  UNL1        0.0147
     38 C         138.6485  140.4824  163.6198 C.ar    1  UNL1        0.0028
     39 C         139.6508  139.5256  163.0454 C.ar    1  UNL1        0.0206
@<TRIPOS>BOND
     1    19    20    1
     2    20     4    1
     3     4     5   ar
     4     5     6   ar
     5     6     7   ar
     6     7     8   ar
     7     8     9   ar
     8     9    10   ar
     9    10    11    1
    10    10    12   ar
    11    12    13   ar
    12     9    14    1
    13    14    15    1
    14    15    16    1
    15    16     2    1
    16     2     3    1
    17     2     1    1
    18     1    21    1
    19    21    22    1
    20    22    23    1
    21    23    24   ar
    22    24    25   ar
    23    25    26   ar
    24    26    29    1
    25    29    30   ar
    26    30    31   ar
    27    31    32   ar
    28    32    33   ar
    29    33    34   ar
    30    34    35   ar
    31    35    36    1
    32    35    37   ar
    33    37    38   ar
    34    38    39   ar
    35    26    27   ar
    36    27    28    1
    37    16    17    1
    38    17    18    1
    39    13     4   ar
    40    27    23   ar
    41    12     6   ar
    42    39    29   ar
    43    18     8    1
    44    39    33   ar
@<TRIPOS>MOLECULE
*****
 39 44 0 0 0
SMALL
GASTEIGER

@<TRIPOS>ATOM
      1 C         142.8056  140.5081  168.1435 C.3     1  UNL1        0.0280
      2 C         142.2606  141.8976  167.9935 C.3     1  UNL1        0.0584
      3 C         141.9814  142.7291  169.2104 C.3     1  UNL1        0.0174
      4 C         140.5433  145.5025  159.1620 C.ar    1  UNL1        0.2057
      5 N         141.8864  145.1306  159.7166 N.ar    1  UNL1       -0.2121
      6 C         141.6858  144.6168  161.1115 C.ar    1  UNL1        0.1187
      7 C         142.6496  144.1064  162.1414 C.ar    1  UNL1        0.0178
      8 C         142.1461  143.6505  163.4789 C.ar    1  UNL1       -0.0225
      9 C         140.6791  143.7048  163.7863 C.ar    1  UNL1       -0.0154
     10 C         139.7153  144.2151  162.7564 C.ar    1  UNL1        0.0664
     11 BR        138.2481  144.2695  163.0639 Br      1  UNL1       -0.0461
     12 C         140.2186  144.6712  161.4190 C.ar    1  UNL1        0.1701
     13 O         139.5125  145.2186  160.2141 O.2     1  UNL1       -0.4379
     14 C         139.9720  143.3025  165.0466 C.3     1  UNL1        0.0439
     15 C         140.5577  142.7465  166.3108 C.3     1  UNL1        0.0768
     16 N         141.9948  142.4555  166.6267 N.3     1  UNL1       -0.2733
     17 C         143.2013  142.6486  165.7567 C.3     1  UNL1        0.0768
     18 C         143.2687  143.1804  164.3557 C.3     1  UNL1        0.0434
     19 C         141.1771  145.7003  156.6501 C.3     1  UNL1        0.0102
     20 C         140.2775  146.0604  157.7952 C.3     1  UNL1        0.0853
     21 C         142.2337  139.3861  167.3285 C.3     1  UNL1        0.0665
     22 S         143.0706  138.7210  166.2764 S.3     1  UNL1       -0.0756
     23 C         142.4453  138.2876  164.9837 C.ar    1  UNL1        0.1932
     24 N         141.3623  137.2615  164.8285 N.ar    1  UNL1       -0.1221
     25 N         141.0410  137.1440  163.3680 N.ar    1  UNL1       -0.1282
     26 C         141.9254  138.0975  162.6206 C.ar    1  UNL1        0.1669
     27 N         142.7933  138.8042  163.6191 N.ar    1  UNL1       -0.2884
     28 C         143.8278  139.8450  163.3078 C.3     1  UNL1        0.1340
     29 C         141.9395  138.3073  161.1354 C.ar    1  UNL1        0.0374
     30 C         142.8429  137.4801  160.2696 C.ar    1  UNL1        0.0031
     31 C         142.8570  137.6900  158.7844 C.ar    1  UNL1        0.0016
     32 C         141.9676  138.7271  158.1650 C.ar    1  UNL1        0.0191
     33 C         141.0642  139.5543  159.0308 C.ar    1  UNL1        0.0810
     34 N         140.1749  140.5913  158.4115 N.ar    1  UNL1       -0.2497
     35 C         139.2715  141.4185  159.2773 C.ar    1  UNL1        0.0593
     36 C         138.3821  142.4555  158.6579 C.3     1  UNL1        0.0521
     37 C         139.2574  141.2087  160.7625 C.ar    1  UNL1        0.0147
     38 C         140.1467  140.1716  161.3818 C.ar    1  UNL1        0.0028
     39 C         141.0501  139.3444  160.5160 C.ar    1  UNL1        0.0206
@<TRIPOS>BOND
     1    19    20    1
     2    20     4    1
     3     4     5   ar
     4     5     6   ar
     5     6     7   ar
     6     7     8   ar
     7     8     9   ar
     8     9    10   ar
     9    10    11    1
    10    10    12   ar
    11    12    13   ar
    12     9    14    1
    13    14    15    1
    14    15    16    1
    15    16     2    1
    16     2     3    1
    17     2     1    1
    18     1    21    1
    19    21    22    1
    20    22    23    1
    21    23    24   ar
    22    24    25   ar
    23    25    26   ar
    24    26    29    1
    25    29    30   ar
    26    30    31   ar
    27    31    32   ar
    28    32    33   ar
    29    33    34   ar
    30    34    35   ar
    31    35    36    1
    32    35    37   ar
    33    37    38   ar
    34    38    39   ar
    35    26    27   ar
    36    27    28    1
    37    16    17    1
    38    17    18    1
    39    13     4   ar
    40    27    23   ar
    41    12     6   ar
    42    39    29   ar
    43    18     8    1
    44    39    33   ar
@<TRIPOS>MOLECULE
*****
 39 44 0 0 0
SMALL
GASTEIGER

@<TRIPOS>ATOM
      1 C         143.9658  142.4850  158.3822 C.3     1  UNL1        0.0280
      2 C         142.9656  143.2843  159.1636 C.3     1  UNL1        0.0584
      3 C         142.0484  144.2367  158.4551 C.3     1  UNL1        0.0174
      4 C         142.4287  142.2959  168.7904 C.ar    1  UNL1        0.2057
      5 N         143.6687  142.6004  168.0031 N.ar    1  UNL1       -0.2121
      6 C         143.2927  142.6639  166.5524 C.ar    1  UNL1        0.1187
      7 C         144.1008  142.9291  165.3168 C.ar    1  UNL1        0.0178
      8 C         143.4366  142.9289  163.9719 C.ar    1  UNL1       -0.0225
      9 C         141.9644  142.6636  163.8626 C.ar    1  UNL1       -0.0154
     10 C         141.1562  142.3985  165.0981 C.ar    1  UNL1        0.0664
     11 BR        139.6839  142.1332  164.9887 Br      1  UNL1       -0.0461
     12 C         141.8204  142.3986  166.4431 C.ar    1  UNL1        0.1701
     13 O         141.2865  142.1712  167.8263 O.2     1  UNL1       -0.4379
     14 C         141.1113  142.6178  162.6296 C.3     1  UNL1        0.0439
     15 C         141.5200  142.8260  161.2013 C.3     1  UNL1        0.0768
     16 N         142.8825  143.1314  160.6535 N.3     1  UNL1       -0.2733
     17 C         144.1729  143.3040  161.3984 C.3     1  UNL1        0.0768
     18 C         144.4196  143.2139  162.8753 C.3     1  UNL1        0.0434
     19 C         141.0181  141.9046  170.9369 C.3     1  UNL1        0.0102
     20 C         142.3456  142.1429  170.2803 C.3     1  UNL1        0.0853
     21 C         143.5599  141.8253  157.0976 C.3     1  UNL1        0.0665
     22 S         142.6227  140.6545  157.1193 S.3     1  UNL1       -0.0756
     23 C         142.5054  139.8104  158.3537 C.ar    1  UNL1        0.1932
     24 N         143.5080  138.8018  158.8308 N.ar    1  UNL1       -0.1221
     25 N         142.9870  138.1947  160.0997 N.ar    1  UNL1       -0.1282
     26 C         141.6624  138.8282  160.4069 C.ar    1  UNL1        0.1669
     27 N         141.3648  139.8266  159.3278 N.ar    1  UNL1       -0.2884
     28 C         140.1413  140.6899  159.2385 C.3     1  UNL1        0.1340
     29 C         140.7889  138.5176  161.5861 C.ar    1  UNL1        0.0374
     30 C         139.3707  138.0777  161.3737 C.ar    1  UNL1        0.0031
     31 C         138.4972  137.7672  162.5529 C.ar    1  UNL1        0.0016
     32 C         139.0419  137.8964  163.9445 C.ar    1  UNL1        0.0191
     33 C         140.4602  138.3363  164.1569 C.ar    1  UNL1        0.0810
     34 N         141.0049  138.4656  165.5485 N.ar    1  UNL1       -0.2497
     35 C         142.4232  138.9054  165.7609 C.ar    1  UNL1        0.0593
     36 C         142.9679  139.0347  167.1525 C.3     1  UNL1        0.0521
     37 C         143.2967  139.2160  164.5817 C.ar    1  UNL1        0.0147
     38 C         142.7519  139.0867  163.1901 C.ar    1  UNL1        0.0028
     39 C         141.3337  138.6469  162.9777 C.ar    1  UNL1        0.0206
@<TRIPOS>BOND
     1    19    20    1
     2    20     4    1
     3     4     5   ar
     4     5     6   ar
     5     6     7   ar
     6     7     8   ar
     7     8     9   ar
     8     9    10   ar
     9    10    11    1
    10    10    12   ar
    11    12    13   ar
    12     9    14    1
    13    14    15    1
    14    15    16    1
    15    16     2    1
    16     2     3    1
    17     2     1    1
    18     1    21    1
    19    21    22    1
    20    22    23    1
    21    23    24   ar
    22    24    25   ar
    23    25    26   ar
    24    26    29    1
    25    29    30   ar
    26    30    31   ar
    27    31    32   ar
    28    32    33   ar
    29    33    34   ar
    30    34    35   ar
    31    35    36    1
    32    35    37   ar
    33    37    38   ar
    34    38    39   ar
    35    26    27   ar
    36    27    28    1
    37    16    17    1
    38    17    18    1
    39    13     4   ar
    40    27    23   ar
    41    12     6   ar
    42    39    29   ar
    43    18     8    1
    44    39    33   ar
@<TRIPOS>MOLECULE
*****
 39 44 0 0 0
SMALL
GASTEIGER

@<TRIPOS>ATOM
      1 C         142.9004  140.2569  158.0607 C.3     1  UNL1        0.0280
      2 C         142.6864  138.9918  158.8376 C.3     1  UNL1        0.0584
      3 C         142.5860  137.6786  158.1195 C.3     1  UNL1        0.0174
      4 C         141.9523  139.3020  168.4971 C.ar    1  UNL1        0.2057
      5 N         143.1869  138.9591  167.7172 N.ar    1  UNL1       -0.2121
      6 C         142.8489  139.0337  166.2577 C.ar    1  UNL1        0.1187
      7 C         143.6691  138.7976  165.0242 C.ar    1  UNL1        0.0178
      8 C         143.0456  138.9505  163.6684 C.ar    1  UNL1       -0.0225
      9 C         141.6022  139.3394  163.5463 C.ar    1  UNL1       -0.0154
     10 C         140.7820  139.5755  164.7797 C.ar    1  UNL1        0.0664
     11 BR        139.3384  139.9644  164.6575 Br      1  UNL1       -0.0461
     12 C         141.4053  139.4226  166.1355 C.ar    1  UNL1        0.1701
     13 O         140.8512  139.5884  167.5195 O.2     1  UNL1       -0.4379
     14 C         140.7909  139.5444  162.3013 C.3     1  UNL1        0.0439
     15 C         141.2230  139.4110  160.8710 C.3     1  UNL1        0.0768
     16 N         142.5727  139.0398  160.3325 N.3     1  UNL1       -0.2733
     17 C         143.8241  138.7102  161.0912 C.3     1  UNL1        0.0768
     18 C         144.0345  138.6704  162.5758 C.3     1  UNL1        0.0434
     19 C         141.3107  140.5824  170.6648 C.3     1  UNL1        0.0102
     20 C         141.8387  139.3500  169.9920 C.3     1  UNL1        0.0853
     21 C         141.7412  140.9268  157.3841 C.3     1  UNL1        0.0665
     22 S         141.5413  142.4063  157.5287 S.3     1  UNL1       -0.0756
     23 C         141.5760  143.0385  158.8885 C.ar    1  UNL1        0.1932
     24 N         142.6367  143.9661  159.4027 N.ar    1  UNL1       -0.1221
     25 N         142.2723  144.3550  160.8049 N.ar    1  UNL1       -0.1282
     26 C         140.9863  143.6678  161.1572 C.ar    1  UNL1        0.1669
     27 N         140.5561  142.8542  159.9728 N.ar    1  UNL1       -0.2884
     28 C         139.3224  142.0052  159.8876 C.3     1  UNL1        0.1340
     29 C         140.2585  143.7753  162.4643 C.ar    1  UNL1        0.0374
     30 C         138.8280  144.2258  162.4915 C.ar    1  UNL1        0.0031
     31 C         138.1002  144.3334  163.7986 C.ar    1  UNL1        0.0016
     32 C         138.8030  143.9904  165.0788 C.ar    1  UNL1        0.0191
     33 C         140.2334  143.5398  165.0517 C.ar    1  UNL1        0.0810
     34 N         140.9361  143.1968  166.3317 N.ar    1  UNL1       -0.2497
     35 C         142.3666  142.7463  166.3046 C.ar    1  UNL1        0.0593
     36 C         143.0693  142.4033  167.5846 C.3     1  UNL1        0.0521
     37 C         143.0944  142.6388  164.9974 C.ar    1  UNL1        0.0147
     38 C         142.3917  142.9818  163.7174 C.ar    1  UNL1        0.0028
     39 C         140.9613  143.4323  163.7445 C.ar    1  UNL1        0.0206
@<TRIPOS>BOND
     1    19    20    1
     2    20     4    1
     3     4     5   ar
     4     5     6   ar
     5     6     7   ar
     6     7     8   ar
     7     8     9   ar
     8     9    10   ar
     9    10    11    1
    10    10    12   ar
    11    12    13   ar
    12     9    14    1
    13    14    15    1
    14    15    16    1
    15    16     2    1
    16     2     3    1
    17     2     1    1
    18     1    21    1
    19    21    22    1
    20    22    23    1
    21    23    24   ar
    22    24    25   ar
    23    25    26   ar
    24    26    29    1
    25    29    30   ar
    26    30    31   ar
    27    31    32   ar
    28    32    33   ar
    29    33    34   ar
    30    34    35   ar
    31    35    36    1
    32    35    37   ar
    33    37    38   ar
    34    38    39   ar
    35    26    27   ar
    36    27    28    1
    37    16    17    1
    38    17    18    1
    39    13     4   ar
    40    27    23   ar
    41    12     6   ar
    42    39    29   ar
    43    18     8    1
    44    39    33   ar
@<TRIPOS>MOLECULE
*****
 39 44 0 0 0
SMALL
GASTEIGER

@<TRIPOS>ATOM
      1 C         143.9250  140.3207  158.2744 C.3     1  UNL1        0.0280
      2 C         144.0543  141.5278  159.1555 C.3     1  UNL1        0.0584
      3 C         144.7315  142.7632  158.6404 C.3     1  UNL1        0.0174
      4 C         140.5147  141.3448  168.1765 C.ar    1  UNL1        0.2057
      5 N         140.5093  142.5252  167.2510 N.ar    1  UNL1       -0.2121
      6 C         141.1553  142.1076  165.9633 C.ar    1  UNL1        0.1187
      7 C         141.4274  142.8514  164.6894 C.ar    1  UNL1        0.0178
      8 C         142.1042  142.1566  163.5451 C.ar    1  UNL1       -0.0225
      9 C         142.5088  140.7182  163.6748 C.ar    1  UNL1       -0.0154
     10 C         142.2368  139.9743  164.9486 C.ar    1  UNL1        0.0664
     11 BR        142.6416  138.5358  165.0782 Br      1  UNL1       -0.0461
     12 C         141.5601  140.6690  166.0929 C.ar    1  UNL1        0.1701
     13 O         141.1641  140.1976  167.4608 O.2     1  UNL1       -0.4379
     14 C         143.1895  139.8433  162.6641 C.3     1  UNL1        0.0439
     15 C         143.6335  140.1911  161.2741 C.3     1  UNL1        0.0768
     16 N         143.5065  141.4994  160.5516 N.3     1  UNL1       -0.2733
     17 C         142.9042  142.7833  161.0406 C.3     1  UNL1        0.0768
     18 C         142.2801  143.0757  162.3728 C.3     1  UNL1        0.0434
     19 C         138.7891  140.4467  169.8986 C.3     1  UNL1        0.0102
     20 C         139.9669  141.3164  169.5726 C.3     1  UNL1        0.0853
     21 C         142.9911  140.3453  157.1009 C.3     1  UNL1        0.0665
     22 S         141.6222  139.7437  157.2191 S.3     1  UNL1       -0.0756
     23 C         140.9618  139.6401  158.5619 C.ar    1  UNL1        0.1932
     24 N         140.7821  138.3837  159.3615 N.ar    1  UNL1       -0.1221
     25 N         140.0744  138.7419  160.6347 N.ar    1  UNL1       -0.1282
     26 C         139.8168  140.2196  160.6220 C.ar    1  UNL1        0.1669
     27 N         140.3652  140.7746  159.3410 N.ar    1  UNL1       -0.2884
     28 C         140.3243  142.2120  158.9139 C.3     1  UNL1        0.1340
     29 C         139.1311  141.0043  161.7008 C.ar    1  UNL1        0.0374
     30 C         138.7526  142.4359  161.4617 C.ar    1  UNL1        0.0031
     31 C         138.0669  143.2207  162.5406 C.ar    1  UNL1        0.0016
     32 C         137.7597  142.5738  163.8587 C.ar    1  UNL1        0.0191
     33 C         138.1383  141.1421  164.0978 C.ar    1  UNL1        0.0810
     34 N         137.8311  140.4952  165.4158 N.ar    1  UNL1       -0.2497
     35 C         138.2096  139.0636  165.6550 C.ar    1  UNL1        0.0593
     36 C         137.9025  138.4167  166.9730 C.3     1  UNL1        0.0521
     37 C         138.8953  138.2789  164.5761 C.ar    1  UNL1        0.0147
     38 C         139.2025  138.9258  163.2581 C.ar    1  UNL1        0.0028
     39 C         138.8239  140.3574  163.0189 C.ar    1  UNL1        0.0206
@<TRIPOS>BOND
     1    19    20    1
     2    20     4    1
     3     4     5   ar
     4     5     6   ar
     5     6     7   ar
     6     7     8   ar
     7     8     9   ar
     8     9    10   ar
     9    10    11    1
    10    10    12   ar
    11    12    13   ar
    12     9    14    1
    13    14    15    1
    14    15    16    1
    15    16     2    1
    16     2     3    1
    17     2     1    1
    18     1    21    1
    19    21    22    1
    20    22    23    1
    21    23    24   ar
    22    24    25   ar
    23    25    26   ar
    24    26    29    1
    25    29    30   ar
    26    30    31   ar
    27    31    32   ar
    28    32    33   ar
    29    33    34   ar
    30    34    35   ar
    31    35    36    1
    32    35    37   ar
    33    37    38   ar
    34    38    39   ar
    35    26    27   ar
    36    27    28    1
    37    16    17    1
    38    17    18    1
    39    13     4   ar
    40    27    23   ar
    41    12     6   ar
    42    39    29   ar
    43    18     8    1
    44    39    33   ar
@<TRIPOS>MOLECULE
*****
 39 44 0 0 0
SMALL
GASTEIGER

@<TRIPOS>ATOM
      1 C         140.2329  140.0049  169.2290 C.3     1  UNL1        0.0280
      2 C         139.9979  141.3789  168.6749 C.3     1  UNL1        0.0584
      3 C         139.9776  142.5647  169.5935 C.3     1  UNL1        0.0174
      4 C         138.6105  142.5951  159.1598 C.ar    1  UNL1        0.2057
      5 N         139.0740  143.6459  160.1247 N.ar    1  UNL1       -0.2121
      6 C         139.1493  143.0233  161.4872 C.ar    1  UNL1        0.1187
      7 C         139.5438  143.5781  162.8239 C.ar    1  UNL1        0.0178
      8 C         139.5212  142.6972  164.0378 C.ar    1  UNL1       -0.0225
      9 C         139.1043  141.2617  163.9151 C.ar    1  UNL1       -0.0154
     10 C         138.7099  140.7068  162.5785 C.ar    1  UNL1        0.0664
     11 BR        138.2930  139.2711  162.4558 Br      1  UNL1       -0.0461
     12 C         138.7324  141.5876  161.3645 C.ar    1  UNL1        0.1701
     13 O         138.3994  141.3230  159.9261 O.2     1  UNL1       -0.4379
     14 C         139.0122  140.2193  164.9899 C.3     1  UNL1        0.0439
     15 C         139.3144  140.3554  166.4529 C.3     1  UNL1        0.0768
     16 N         139.7831  141.5671  167.2023 N.3     1  UNL1       -0.2733
     17 C         140.0656  142.9423  166.6740 C.3     1  UNL1        0.0768
     18 C         139.9491  143.4453  165.2656 C.3     1  UNL1        0.0434
     19 C         137.9609  141.6253  156.8387 C.3     1  UNL1        0.0102
     20 C         138.3958  142.7833  157.6872 C.3     1  UNL1        0.0853
     21 C         141.5455  139.6705  169.8734 C.3     1  UNL1        0.0665
     22 S         142.7051  139.2317  169.0293 S.3     1  UNL1       -0.0756
     23 C         142.7741  139.6293  167.5846 C.ar    1  UNL1        0.1932
     24 N         142.5816  138.7177  166.4090 N.ar    1  UNL1       -0.1221
     25 N         142.7363  139.5334  165.1597 N.ar    1  UNL1       -0.1282
     26 C         143.0243  140.9492  165.5632 C.ar    1  UNL1        0.1669
     27 N         143.0476  141.0084  167.0617 N.ar    1  UNL1       -0.2884
     28 C         143.3002  142.2320  167.8919 C.3     1  UNL1        0.1340
     29 C         143.2493  142.1030  164.6315 C.ar    1  UNL1        0.0374
     30 C         143.7601  143.4088  165.1646 C.ar    1  UNL1        0.0031
     31 C         143.9852  144.5626  164.2329 C.ar    1  UNL1        0.0016
     32 C         143.6995  144.4107  162.7682 C.ar    1  UNL1        0.0191
     33 C         143.1887  143.1050  162.2351 C.ar    1  UNL1        0.0810
     34 N         142.9030  142.9531  160.7705 N.ar    1  UNL1       -0.2497
     35 C         142.3922  141.6473  160.2374 C.ar    1  UNL1        0.0593
     36 C         142.1065  141.4955  158.7728 C.3     1  UNL1        0.0521
     37 C         142.1671  140.4935  161.1691 C.ar    1  UNL1        0.0147
     38 C         142.4528  140.6454  162.6337 C.ar    1  UNL1        0.0028
     39 C         142.9636  141.9511  163.1668 C.ar    1  UNL1        0.0206
@<TRIPOS>BOND
     1    19    20    1
     2    20     4    1
     3     4     5   ar
     4     5     6   ar
     5     6     7   ar
     6     7     8   ar
     7     8     9   ar
     8     9    10   ar
     9    10    11    1
    10    10    12   ar
    11    12    13   ar
    12     9    14    1
    13    14    15    1
    14    15    16    1
    15    16     2    1
    16     2     3    1
    17     2     1    1
    18     1    21    1
    19    21    22    1
    20    22    23    1
    21    23    24   ar
    22    24    25   ar
    23    25    26   ar
    24    26    29    1
    25    29    30   ar
    26    30    31   ar
    27    31    32   ar
    28    32    33   ar
    29    33    34   ar
    30    34    35   ar
    31    35    36    1
    32    35    37   ar
    33    37    38   ar
    34    38    39   ar
    35    26    27   ar
    36    27    28    1
    37    16    17    1
    38    17    18    1
    39    13     4   ar
    40    27    23   ar
    41    12     6   ar
    42    39    29   ar
    43    18     8    1
    44    39    33   ar
@<TRIPOS>MOLECULE
*****
 39 44 0 0 0
SMALL
GASTEIGER

@<TRIPOS>ATOM
      1 C         138.9087  143.0294  157.8513 C.3     1  UNL1        0.0280
      2 C         138.3012  141.8295  158.5157 C.3     1  UNL1        0.0584
      3 C         137.4841  140.8610  157.7127 C.3     1  UNL1        0.0174
      4 C         139.6548  140.3344  167.9958 C.ar    1  UNL1        0.2057
      5 N         139.2102  139.3084  166.9960 N.ar    1  UNL1       -0.2121
      6 C         139.1337  139.9723  165.6532 C.ar    1  UNL1        0.1187
      7 C         138.7536  139.4545  164.2977 C.ar    1  UNL1        0.0178
      8 C         138.7709  140.3731  163.1119 C.ar    1  UNL1       -0.0225
      9 C         139.1683  141.8094  163.2818 C.ar    1  UNL1       -0.0154
     10 C         139.5484  142.3273  164.6372 C.ar    1  UNL1        0.0664
     11 BR        139.9458  143.7637  164.8070 Br      1  UNL1       -0.0461
     12 C         139.5311  141.4087  165.8230 C.ar    1  UNL1        0.1701
     13 O         139.8532  141.6325  167.2708 O.2     1  UNL1       -0.4379
     14 C         139.2523  142.8860  162.2405 C.3     1  UNL1        0.0439
     15 C         138.9596  142.7919  160.7723 C.3     1  UNL1        0.0768
     16 N         138.5107  141.5982  159.9829 N.3     1  UNL1       -0.2733
     17 C         138.2435  140.2036  160.4664 C.3     1  UNL1        0.0768
     18 C         138.3593  139.6584  161.8590 C.3     1  UNL1        0.0434
     19 C         141.2200  139.7160  169.9751 C.3     1  UNL1        0.0102
     20 C         139.8643  140.1031  169.4630 C.3     1  UNL1        0.0853
     21 C         140.1078  142.8689  156.9645 C.3     1  UNL1        0.0665
     22 S         141.4153  143.4943  157.3507 S.3     1  UNL1       -0.0756
     23 C         142.1438  143.0164  158.5717 C.ar    1  UNL1        0.1932
     24 N         142.9993  141.7878  158.6635 N.ar    1  UNL1       -0.1221
     25 N         143.5289  141.6953  160.0639 N.ar    1  UNL1       -0.1282
     26 C         143.0006  142.8668  160.8375 C.ar    1  UNL1        0.1669
     27 N         142.1446  143.6833  159.9153 N.ar    1  UNL1       -0.2884
     28 C         141.4170  144.9451  160.2737 C.3     1  UNL1        0.1340
     29 C         143.2794  143.1688  162.2801 C.ar    1  UNL1        0.0374
     30 C         143.7035  144.5483  162.6892 C.ar    1  UNL1        0.0031
     31 C         143.9824  144.8503  164.1318 C.ar    1  UNL1        0.0016
     32 C         143.8371  143.7728  165.1653 C.ar    1  UNL1        0.0191
     33 C         143.4130  142.3934  164.7562 C.ar    1  UNL1        0.0810
     34 N         143.2678  141.3159  165.7897 N.ar    1  UNL1       -0.2497
     35 C         142.8437  139.9365  165.3805 C.ar    1  UNL1        0.0593
     36 C         142.6985  138.8591  166.4140 C.3     1  UNL1        0.0521
     37 C         142.5649  139.6345  163.9380 C.ar    1  UNL1        0.0147
     38 C         142.7101  140.7119  162.9045 C.ar    1  UNL1        0.0028
     39 C         143.1342  142.0914  163.3136 C.ar    1  UNL1        0.0206
@<TRIPOS>BOND
     1    19    20    1
     2    20     4    1
     3     4     5   ar
     4     5     6   ar
     5     6     7   ar
     6     7     8   ar
     7     8     9   ar
     8     9    10   ar
     9    10    11    1
    10    10    12   ar
    11    12    13   ar
    12     9    14    1
    13    14    15    1
    14    15    16    1
    15    16     2    1
    16     2     3    1
    17     2     1    1
    18     1    21    1
    19    21    22    1
    20    22    23    1
    21    23    24   ar
    22    24    25   ar
    23    25    26   ar
    24    26    29    1
    25    29    30   ar
    26    30    31   ar
    27    31    32   ar
    28    32    33   ar
    29    33    34   ar
    30    34    35   ar
    31    35    36    1
    32    35    37   ar
    33    37    38   ar
    34    38    39   ar
    35    26    27   ar
    36    27    28    1
    37    16    17    1
    38    17    18    1
    39    13     4   ar
    40    27    23   ar
    41    12     6   ar
    42    39    29   ar
    43    18     8    1
    44    39    33   ar
@<TRIPOS>MOLECULE
*****
 39 44 0 0 0
SMALL
GASTEIGER

@<TRIPOS>ATOM
      1 C         142.3617  143.7533  157.4821 C.3     1  UNL1        0.0280
      2 C         142.8857  142.4214  157.9312 C.3     1  UNL1        0.0584
      3 C         143.4688  141.4686  156.9300 C.3     1  UNL1        0.0174
      4 C         142.5045  139.9724  167.3012 C.ar    1  UNL1        0.2057
      5 N         142.0821  139.1123  166.1471 N.ar    1  UNL1       -0.2121
      6 C         142.3128  139.8864  164.8833 C.ar    1  UNL1        0.1187
      7 C         142.0814  139.5453  163.4410 C.ar    1  UNL1        0.0178
      8 C         142.4150  140.5429  162.3715 C.ar    1  UNL1       -0.0225
      9 C         142.9799  141.8814  162.7444 C.ar    1  UNL1       -0.0154
     10 C         143.2114  142.2225  164.1866 C.ar    1  UNL1        0.0664
     11 BR        143.7764  143.5611  164.5595 Br      1  UNL1       -0.0461
     12 C         142.8778  141.2250  165.2561 C.ar    1  UNL1        0.1701
     13 O         142.9962  141.2781  166.7505 O.2     1  UNL1       -0.4379
     14 C         143.3784  143.0124  161.8431 C.3     1  UNL1        0.0439
     15 C         143.3101  143.0840  160.3463 C.3     1  UNL1        0.0768
     16 N         142.8267  142.0424  159.3813 N.3     1  UNL1       -0.2733
     17 C         142.2921  140.6720  159.6745 C.3     1  UNL1        0.0768
     18 C         142.1088  140.0046  161.0053 C.3     1  UNL1        0.0434
     19 C         141.1744  139.7830  169.5250 C.3     1  UNL1        0.0102
     20 C         142.4455  139.5934  168.7513 C.3     1  UNL1        0.0853
     21 C         141.0731  143.8335  156.7184 C.3     1  UNL1        0.0665
     22 S         139.7846  144.0801  157.4454 S.3     1  UNL1       -0.0756
     23 C         139.5257  143.4091  158.7618 C.ar    1  UNL1        0.1932
     24 N         138.9091  142.0555  158.9553 N.ar    1  UNL1       -0.1221
     25 N         138.8404  141.7838  160.4289 N.ar    1  UNL1       -0.1282
     26 C         139.4146  142.9696  161.1461 C.ar    1  UNL1        0.1669
     27 N         139.8381  143.9740  160.1158 N.ar    1  UNL1       -0.2884
     28 C         140.4642  145.3090  160.3911 C.3     1  UNL1        0.1340
     29 C         139.5427  143.1237  162.6327 C.ar    1  UNL1        0.0374
     30 C         140.0072  144.4260  163.2144 C.ar    1  UNL1        0.0031
     31 C         140.1353  144.5801  164.7009 C.ar    1  UNL1        0.0016
     32 C         139.7989  143.4319  165.6058 C.ar    1  UNL1        0.0191
     33 C         139.3345  142.1297  165.0241 C.ar    1  UNL1        0.0810
     34 N         138.9982  140.9816  165.9289 N.ar    1  UNL1       -0.2497
     35 C         138.5337  139.6793  165.3471 C.ar    1  UNL1        0.0593
     36 C         138.1974  138.5312  166.2519 C.3     1  UNL1        0.0521
     37 C         138.4056  139.5252  163.8606 C.ar    1  UNL1        0.0147
     38 C         138.7419  140.6733  162.9558 C.ar    1  UNL1        0.0028
     39 C         139.2064  141.9755  163.5375 C.ar    1  UNL1        0.0206
@<TRIPOS>BOND
     1    19    20    1
     2    20     4    1
     3     4     5   ar
     4     5     6   ar
     5     6     7   ar
     6     7     8   ar
     7     8     9   ar
     8     9    10   ar
     9    10    11    1
    10    10    12   ar
    11    12    13   ar
    12     9    14    1
    13    14    15    1
    14    15    16    1
    15    16     2    1
    16     2     3    1
    17     2     1    1
    18     1    21    1
    19    21    22    1
    20    22    23    1
    21    23    24   ar
    22    24    25   ar
    23    25    26   ar
    24    26    29    1
    25    29    30   ar
    26    30    31   ar
    27    31    32   ar
    28    32    33   ar
    29    33    34   ar
    30    34    35   ar
    31    35    36    1
    32    35    37   ar
    33    37    38   ar
    34    38    39   ar
    35    26    27   ar
    36    27    28    1
    37    16    17    1
    38    17    18    1
    39    13     4   ar
    40    27    23   ar
    41    12     6   ar
    42    39    29   ar
    43    18     8    1
    44    39    33   ar
@<TRIPOS>MOLECULE
*****
 39 44 0 0 0
SMALL
GASTEIGER

@<TRIPOS>ATOM
      1 C         141.7902  141.4834  156.2482 C.3     1  UNL1        0.0280
      2 C         140.6364  142.0940  156.9871 C.3     1  UNL1        0.0584
      3 C         139.5146  142.7370  156.2266 C.3     1  UNL1        0.0174
      4 C         140.4294  141.8844  166.6749 C.ar    1  UNL1        0.2057
      5 N         141.6383  142.1387  165.8241 N.ar    1  UNL1       -0.2121
      6 C         141.2142  142.0797  164.3866 C.ar    1  UNL1        0.1187
      7 C         141.9775  142.2532  163.1070 C.ar    1  UNL1        0.0178
      8 C         141.2696  142.1359  161.7896 C.ar    1  UNL1       -0.0225
      9 C         139.7987  141.8451  161.7520 C.ar    1  UNL1       -0.0154
     10 C         139.0353  141.6716  163.0315 C.ar    1  UNL1        0.0664
     11 BR        137.5643  141.3808  162.9937 Br      1  UNL1       -0.0461
     12 C         139.7431  141.7889  164.3488 C.ar    1  UNL1        0.1701
     13 O         139.2581  141.6682  165.7631 O.2     1  UNL1       -0.4379
     14 C         138.9065  141.6892  160.5562 C.3     1  UNL1        0.0439
     15 C         139.2651  141.7855  159.1028 C.3     1  UNL1        0.0768
     16 N         140.6043  142.0615  158.4864 N.3     1  UNL1       -0.2733
     17 C         141.9158  142.3095  159.1709 C.3     1  UNL1        0.0768
     18 C         142.2119  142.3425  160.6410 C.3     1  UNL1        0.0434
     19 C         140.5352  143.1253  168.9551 C.3     1  UNL1        0.0102
     20 C         140.3973  141.8520  168.1742 C.3     1  UNL1        0.0853
     21 C         141.6625  140.1084  155.6623 C.3     1  UNL1        0.0665
     22 S         142.3283  138.9431  156.3320 S.3     1  UNL1       -0.0756
     23 C         142.3494  138.8500  157.8290 C.ar    1  UNL1        0.1932
     24 N         143.5597  138.9886  158.7041 N.ar    1  UNL1       -0.1221
     25 N         143.1221  138.8262  160.1296 N.ar    1  UNL1       -0.1282
     26 C         141.6413  138.5871  160.1355 C.ar    1  UNL1        0.1669
     27 N         141.1637  138.6018  158.7137 N.ar    1  UNL1       -0.2884
     28 C         139.7489  138.4032  158.2567 C.3     1  UNL1        0.1340
     29 C         140.7879  138.3712  161.3501 C.ar    1  UNL1        0.0374
     30 C         139.3297  138.0550  161.1956 C.ar    1  UNL1        0.0031
     31 C         138.4764  137.8391  162.4101 C.ar    1  UNL1        0.0016
     32 C         139.0812  137.9394  163.7792 C.ar    1  UNL1        0.0191
     33 C         140.5393  138.2556  163.9337 C.ar    1  UNL1        0.0810
     34 N         141.1441  138.3559  165.3027 N.ar    1  UNL1       -0.2497
     35 C         142.6022  138.6721  165.4571 C.ar    1  UNL1        0.0593
     36 C         143.2070  138.7724  166.8261 C.3     1  UNL1        0.0521
     37 C         143.4556  138.8880  164.2426 C.ar    1  UNL1        0.0147
     38 C         142.8508  138.7877  162.8736 C.ar    1  UNL1        0.0028
     39 C         141.3927  138.4715  162.7192 C.ar    1  UNL1        0.0206
@<TRIPOS>BOND
     1    19    20    1
     2    20     4    1
     3     4     5   ar
     4     5     6   ar
     5     6     7   ar
     6     7     8   ar
     7     8     9   ar
     8     9    10   ar
     9    10    11    1
    10    10    12   ar
    11    12    13   ar
    12     9    14    1
    13    14    15    1
    14    15    16    1
    15    16     2    1
    16     2     3    1
    17     2     1    1
    18     1    21    1
    19    21    22    1
    20    22    23    1
    21    23    24   ar
    22    24    25   ar
    23    25    26   ar
    24    26    29    1
    25    29    30   ar
    26    30    31   ar
    27    31    32   ar
    28    32    33   ar
    29    33    34   ar
    30    34    35   ar
    31    35    36    1
    32    35    37   ar
    33    37    38   ar
    34    38    39   ar
    35    26    27   ar
    36    27    28    1
    37    16    17    1
    38    17    18    1
    39    13     4   ar
    40    27    23   ar
    41    12     6   ar
    42    39    29   ar
    43    18     8    1
    44    39    33   ar
