@<TRIPOS>MOLECULE
*****
 31 35 0 0 0
SMALL
GASTEIGER

@<TRIPOS>ATOM
      1 C         139.4981  137.7127  163.3458 C.3     1  UNL1        0.0730
      2 C         144.4741  142.6984  170.0220 C.3     1  UNL1        0.0594
      3 C         143.1825  142.0318  169.6515 C.ar    1  UNL1        0.0886
      4 N         141.9532  141.9540  170.5074 N.ar    1  UNL1       -0.2427
      5 C         140.9043  141.2000  169.7448 C.ar    1  UNL1        0.0871
      6 C         139.4952  140.8168  170.0875 C.ar    1  UNL1        0.0193
      7 C         138.6671  140.0454  169.1030 C.ar    1  UNL1       -0.0030
      8 C         139.2484  139.6572  167.7757 C.ar    1  UNL1       -0.0241
      9 C         140.6574  140.0404  167.4331 C.ar    1  UNL1       -0.0172
     10 C         141.4855  140.8118  168.4175 C.ar    1  UNL1        0.0439
     11 S         142.8934  141.3259  168.3599 S.2     1  UNL1       -0.0711
     12 C         141.4246  139.7560  166.1758 C.3     1  UNL1        0.0439
     13 C         140.9720  139.0179  164.9508 C.3     1  UNL1        0.0768
     14 N         139.6407  138.3822  164.6805 N.3     1  UNL1       -0.2720
     15 C         138.4329  138.3274  165.5684 C.3     1  UNL1        0.0768
     16 C         138.2583  138.8948  166.9459 C.3     1  UNL1        0.0434
     17 C         138.3173  138.0219  162.4739 C.3     1  UNL1        0.0294
     18 C         138.2864  139.2914  161.6754 C.3     1  UNL1        0.0666
     19 S         137.7458  140.5494  162.2877 S.3     1  UNL1       -0.0756
     20 C         138.6009  141.3586  163.2173 C.ar    1  UNL1        0.1933
     21 N         138.2241  141.8034  164.5994 N.ar    1  UNL1       -0.1220
     22 N         139.3732  142.5847  165.1643 N.ar    1  UNL1       -0.1250
     23 C         140.4602  142.6228  164.1314 C.ar    1  UNL1        0.2029
     24 N         139.9829  141.8650  162.9280 N.ar    1  UNL1       -0.2860
     25 C         140.7525  141.6512  161.6584 C.3     1  UNL1        0.1341
     26 C         141.7908  143.2998  164.2763 C.ar    1  UNL1        0.1964
     27 O         142.9963  142.7357  164.9679 O.2     1  UNL1       -0.4283
     28 C         144.1002  143.7470  164.8741 C.ar    1  UNL1        0.2849
     29 N         143.5769  144.9362  164.1244 N.ar    1  UNL1       -0.2085
     30 C         142.1496  144.6597  163.7549 C.ar    1  UNL1        0.1001
     31 C         141.2407  145.5815  162.9971 C.3     1  UNL1        0.0556
@<TRIPOS>BOND
     1     2     3    1
     2     3     4   ar
     3     4     5   ar
     4     5     6   ar
     5     6     7   ar
     6     7     8   ar
     7     8     9   ar
     8     9    10   ar
     9    10    11   ar
    10     9    12    1
    11    12    13    1
    12    13    14    1
    13    14     1    1
    14     1    17    1
    15    17    18    1
    16    18    19    1
    17    19    20    1
    18    20    21   ar
    19    21    22   ar
    20    22    23   ar
    21    23    26    1
    22    26    27   ar
    23    27    28   ar
    24    28    29   ar
    25    29    30   ar
    26    30    31    1
    27    23    24   ar
    28    24    25    1
    29    14    15    1
    30    15    16    1
    31    11     3   ar
    32    24    20   ar
    33    10     5   ar
    34    30    26   ar
    35    16     8    1
@<TRIPOS>MOLECULE
*****
 31 35 0 0 0
SMALL
GASTEIGER

@<TRIPOS>ATOM
      1 C         139.0435  145.2220  162.4625 C.3     1  UNL1        0.0730
      2 C         141.8327  141.0183  170.7533 C.3     1  UNL1        0.0594
      3 C         141.0367  140.9013  169.4874 C.ar    1  UNL1        0.0886
      4 N         140.2152  139.7183  169.0685 N.ar    1  UNL1       -0.2427
      5 C         139.5932  140.0327  167.7402 C.ar    1  UNL1        0.0871
      6 C         138.6853  139.2427  166.8449 C.ar    1  UNL1        0.0193
      7 C         138.2145  139.8301  165.5474 C.ar    1  UNL1       -0.0030
      8 C         138.6516  141.2076  165.1454 C.ar    1  UNL1       -0.0241
      9 C         139.5595  141.9975  166.0407 C.ar    1  UNL1       -0.0172
     10 C         140.0303  141.4101  167.3381 C.ar    1  UNL1        0.0439
     11 S         140.9224  141.9469  168.4179 S.2     1  UNL1       -0.0711
     12 C         140.1104  143.3770  165.8319 C.3     1  UNL1        0.0439
     13 C         139.8893  144.3072  164.6760 C.3     1  UNL1        0.0768
     14 N         139.0629  144.0876  163.4437 N.3     1  UNL1       -0.2720
     15 C         138.2534  142.8837  163.0627 C.3     1  UNL1        0.0768
     16 C         138.0703  141.6019  163.8200 C.3     1  UNL1        0.0434
     17 C         140.3215  145.6907  161.8323 C.3     1  UNL1        0.0294
     18 C         140.6036  145.3845  160.3912 C.3     1  UNL1        0.0666
     19 S         141.4762  144.2195  160.0290 S.3     1  UNL1       -0.0756
     20 C         140.9432  142.8215  160.1354 C.ar    1  UNL1        0.1933
     21 N         140.0978  142.1200  159.1140 N.ar    1  UNL1       -0.1220
     22 N         139.7941  140.7444  159.6293 N.ar    1  UNL1       -0.1250
     23 C         140.4518  140.5957  160.9692 C.ar    1  UNL1        0.2029
     24 N         141.1620  141.8794  161.2820 N.ar    1  UNL1       -0.2860
     25 C         141.9523  142.1699  162.5234 C.3     1  UNL1        0.1341
     26 C         140.4072  139.3773  161.8429 C.ar    1  UNL1        0.1964
     27 O         141.5681  138.7774  162.5792 O.2     1  UNL1       -0.4283
     28 C         141.0722  137.5741  163.3251 C.ar    1  UNL1        0.2849
     29 N         139.6047  137.4303  163.0496 N.ar    1  UNL1       -0.2085
     30 C         139.1937  138.5448  162.1336 C.ar    1  UNL1        0.1001
     31 C         137.8118  138.7845  161.6016 C.3     1  UNL1        0.0556
@<TRIPOS>BOND
     1     2     3    1
     2     3     4   ar
     3     4     5   ar
     4     5     6   ar
     5     6     7   ar
     6     7     8   ar
     7     8     9   ar
     8     9    10   ar
     9    10    11   ar
    10     9    12    1
    11    12    13    1
    12    13    14    1
    13    14     1    1
    14     1    17    1
    15    17    18    1
    16    18    19    1
    17    19    20    1
    18    20    21   ar
    19    21    22   ar
    20    22    23   ar
    21    23    26    1
    22    26    27   ar
    23    27    28   ar
    24    28    29   ar
    25    29    30   ar
    26    30    31    1
    27    23    24   ar
    28    24    25    1
    29    14    15    1
    30    15    16    1
    31    11     3   ar
    32    24    20   ar
    33    10     5   ar
    34    30    26   ar
    35    16     8    1
@<TRIPOS>MOLECULE
*****
 31 35 0 0 0
SMALL
GASTEIGER

@<TRIPOS>ATOM
      1 C         142.2501  144.1758  162.1111 C.3     1  UNL1        0.0730
      2 C         142.0181  140.5125  171.0952 C.3     1  UNL1        0.0594
      3 C         142.3259  140.2764  169.6463 C.ar    1  UNL1        0.0886
      4 N         142.8385  138.9988  169.0506 N.ar    1  UNL1       -0.2427
      5 C         143.0046  139.2093  167.5747 C.ar    1  UNL1        0.0871
      6 C         143.4761  138.3010  166.4781 C.ar    1  UNL1        0.0193
      7 C         143.5377  138.8005  165.0650 C.ar    1  UNL1       -0.0030
      8 C         143.1277  140.2083  164.7486 C.ar    1  UNL1       -0.0241
      9 C         142.6562  141.1165  165.8452 C.ar    1  UNL1       -0.0172
     10 C         142.5945  140.6171  167.2583 C.ar    1  UNL1        0.0439
     11 S         142.1751  141.2766  168.5386 S.2     1  UNL1       -0.0711
     12 C         142.2048  142.5438  165.7484 C.3     1  UNL1        0.0439
     13 C         142.1136  143.4152  164.5308 C.3     1  UNL1        0.0768
     14 N         142.4512  143.0746  163.1096 N.3     1  UNL1       -0.2720
     15 C         142.9634  141.7785  162.5547 C.3     1  UNL1        0.0768
     16 C         143.2645  140.5029  163.2842 C.3     1  UNL1        0.0434
     17 C         141.4643  145.3965  162.4887 C.3     1  UNL1        0.0294
     18 C         140.1385  145.6652  161.8406 C.3     1  UNL1        0.0666
     19 S         138.8680  145.3607  162.5775 S.3     1  UNL1       -0.0756
     20 C         138.6384  143.9900  163.1418 C.ar    1  UNL1        0.1933
     21 N         138.3222  143.6669  164.5721 N.ar    1  UNL1       -0.1220
     22 N         138.1730  142.1790  164.6892 N.ar    1  UNL1       -0.1250
     23 C         138.3969  141.5824  163.3312 C.ar    1  UNL1        0.2029
     24 N         138.6845  142.7017  162.3749 N.ar    1  UNL1       -0.2860
     25 C         138.9684  142.5578  160.9090 C.3     1  UNL1        0.1341
     26 C         138.3428  140.1229  162.9896 C.ar    1  UNL1        0.1964
     27 O         137.6984  139.5252  161.7741 O.2     1  UNL1       -0.4283
     28 C         137.8808  138.0376  161.8368 C.ar    1  UNL1        0.2849
     29 N         138.6380  137.7159  163.0911 N.ar    1  UNL1       -0.2085
     30 C         138.9235  139.0047  163.8036 C.ar    1  UNL1        0.1001
     31 C         139.6603  139.1497  165.1021 C.3     1  UNL1        0.0556
@<TRIPOS>BOND
     1     2     3    1
     2     3     4   ar
     3     4     5   ar
     4     5     6   ar
     5     6     7   ar
     6     7     8   ar
     7     8     9   ar
     8     9    10   ar
     9    10    11   ar
    10     9    12    1
    11    12    13    1
    12    13    14    1
    13    14     1    1
    14     1    17    1
    15    17    18    1
    16    18    19    1
    17    19    20    1
    18    20    21   ar
    19    21    22   ar
    20    22    23   ar
    21    23    26    1
    22    26    27   ar
    23    27    28   ar
    24    28    29   ar
    25    29    30   ar
    26    30    31    1
    27    23    24   ar
    28    24    25    1
    29    14    15    1
    30    15    16    1
    31    11     3   ar
    32    24    20   ar
    33    10     5   ar
    34    30    26   ar
    35    16     8    1
@<TRIPOS>MOLECULE
*****
 31 35 0 0 0
SMALL
GASTEIGER

@<TRIPOS>ATOM
      1 C         137.7924  138.6284  161.7263 C.3     1  UNL1        0.0730
      2 C         141.3965  142.9917  169.6104 C.3     1  UNL1        0.0594
      3 C         141.5561  141.9061  168.5878 C.ar    1  UNL1        0.0886
      4 N         142.6797  140.9145  168.5227 N.ar    1  UNL1       -0.2427
      5 C         142.4382  140.0170  167.3453 C.ar    1  UNL1        0.0871
      6 C         143.2129  138.8583  166.7909 C.ar    1  UNL1        0.0193
      7 C         142.7148  138.1365  165.5740 C.ar    1  UNL1       -0.0030
      8 C         141.4419  138.5736  164.9114 C.ar    1  UNL1       -0.0241
      9 C         140.6673  139.7322  165.4658 C.ar    1  UNL1       -0.0172
     10 C         141.1654  140.4539  166.6827 C.ar    1  UNL1        0.0439
     11 S         140.6203  141.6214  167.4506 S.2     1  UNL1       -0.0711
     12 C         139.3849  140.3261  164.9630 C.3     1  UNL1        0.0439
     13 C         138.5604  139.9080  163.7816 C.3     1  UNL1        0.0768
     14 N         138.8148  138.7928  162.8114 N.3     1  UNL1       -0.2720
     15 C         139.9564  137.8201  162.7827 C.3     1  UNL1        0.0768
     16 C         141.1256  137.7226  163.7173 C.3     1  UNL1        0.0434
     17 C         137.3133  139.8253  160.9594 C.3     1  UNL1        0.0294
     18 C         137.7606  140.0371  159.5434 C.3     1  UNL1        0.0666
     19 S         139.1200  140.6058  159.2633 S.3     1  UNL1       -0.0756
     20 C         139.5357  141.9012  159.8951 C.ar    1  UNL1        0.1933
     21 N         138.8912  143.2373  159.6730 N.ar    1  UNL1       -0.1220
     22 N         139.6261  144.2498  160.5005 N.ar    1  UNL1       -0.1250
     23 C         140.7248  143.5394  161.2342 C.ar    1  UNL1        0.2029
     24 N         140.6689  142.0878  160.8600 N.ar    1  UNL1       -0.2860
     25 C         141.5854  141.0119  161.3625 C.3     1  UNL1        0.1341
     26 C         141.7069  144.1697  162.1765 C.ar    1  UNL1        0.1964
     27 O         143.1652  144.3964  161.9085 O.2     1  UNL1       -0.4283
     28 C         143.7628  145.0509  163.1187 C.ar    1  UNL1        0.2849
     29 N         142.6737  145.2288  164.1347 N.ar    1  UNL1       -0.2085
     30 C         141.4031  144.6842  163.5524 C.ar    1  UNL1        0.1001
     31 C         140.0639  144.6585  164.2276 C.3     1  UNL1        0.0556
@<TRIPOS>BOND
     1     2     3    1
     2     3     4   ar
     3     4     5   ar
     4     5     6   ar
     5     6     7   ar
     6     7     8   ar
     7     8     9   ar
     8     9    10   ar
     9    10    11   ar
    10     9    12    1
    11    12    13    1
    12    13    14    1
    13    14     1    1
    14     1    17    1
    15    17    18    1
    16    18    19    1
    17    19    20    1
    18    20    21   ar
    19    21    22   ar
    20    22    23   ar
    21    23    26    1
    22    26    27   ar
    23    27    28   ar
    24    28    29   ar
    25    29    30   ar
    26    30    31    1
    27    23    24   ar
    28    24    25    1
    29    14    15    1
    30    15    16    1
    31    11     3   ar
    32    24    20   ar
    33    10     5   ar
    34    30    26   ar
    35    16     8    1
@<TRIPOS>MOLECULE
*****
 31 35 0 0 0
SMALL
GASTEIGER

@<TRIPOS>ATOM
      1 C         143.6950  138.0092  161.7164 C.3     1  UNL1        0.0730
      2 C         140.8278  141.3583  170.3623 C.3     1  UNL1        0.0594
      3 C         140.4538  140.6246  169.1086 C.ar    1  UNL1        0.0886
      4 N         139.1059  140.0467  168.7940 N.ar    1  UNL1       -0.2427
      5 C         139.1811  139.4049  167.4403 C.ar    1  UNL1        0.0871
      6 C         138.1600  138.6789  166.6156 C.ar    1  UNL1        0.0193
      7 C         138.5334  138.1342  165.2687 C.ar    1  UNL1       -0.0030
      8 C         139.9279  138.3155  164.7467 C.ar    1  UNL1       -0.0241
      9 C         140.9489  139.0416  165.5714 C.ar    1  UNL1       -0.0172
     10 C         140.5756  139.5863  166.9182 C.ar    1  UNL1        0.0439
     11 S         141.3621  140.3401  167.9493 S.2     1  UNL1       -0.0711
     12 C         142.3836  139.3303  165.2421 C.3     1  UNL1        0.0439
     13 C         143.1515  138.9641  164.0065 C.3     1  UNL1        0.0768
     14 N         142.6744  138.2190  162.7954 N.3     1  UNL1       -0.2720
     15 C         141.3115  137.6559  162.5204 C.3     1  UNL1        0.0768
     16 C         140.0892  137.6988  163.3889 C.3     1  UNL1        0.0434
     17 C         143.3314  138.2547  160.2819 C.3     1  UNL1        0.0294
     18 C         143.7037  139.5508  159.6250 C.3     1  UNL1        0.0666
     19 S         143.6748  140.8266  160.4132 S.3     1  UNL1       -0.0756
     20 C         142.3965  141.2866  161.0489 C.ar    1  UNL1        0.1933
     21 N         141.0127  141.0406  160.5248 N.ar    1  UNL1       -0.1220
     22 N         140.0384  141.6754  161.4723 N.ar    1  UNL1       -0.1250
     23 C         140.8201  142.3138  162.5821 C.ar    1  UNL1        0.2029
     24 N         142.2774  142.0735  162.3204 N.ar    1  UNL1       -0.2860
     25 C         143.4158  142.5386  163.1794 C.3     1  UNL1        0.1341
     26 C         140.2453  143.0612  163.7486 C.ar    1  UNL1        0.1964
     27 O         140.3042  142.6338  165.1852 O.2     1  UNL1       -0.4283
     28 C         139.6060  143.6758  166.0079 C.ar    1  UNL1        0.2849
     29 N         139.1155  144.7472  165.0798 N.ar    1  UNL1       -0.2085
     30 C         139.5106  144.3674  163.6835 C.ar    1  UNL1        0.1001
     31 C         139.2217  145.1555  162.4403 C.3     1  UNL1        0.0556
@<TRIPOS>BOND
     1     2     3    1
     2     3     4   ar
     3     4     5   ar
     4     5     6   ar
     5     6     7   ar
     6     7     8   ar
     7     8     9   ar
     8     9    10   ar
     9    10    11   ar
    10     9    12    1
    11    12    13    1
    12    13    14    1
    13    14     1    1
    14     1    17    1
    15    17    18    1
    16    18    19    1
    17    19    20    1
    18    20    21   ar
    19    21    22   ar
    20    22    23   ar
    21    23    26    1
    22    26    27   ar
    23    27    28   ar
    24    28    29   ar
    25    29    30   ar
    26    30    31    1
    27    23    24   ar
    28    24    25    1
    29    14    15    1
    30    15    16    1
    31    11     3   ar
    32    24    20   ar
    33    10     5   ar
    34    30    26   ar
    35    16     8    1
@<TRIPOS>MOLECULE
*****
 31 35 0 0 0
SMALL
GASTEIGER

@<TRIPOS>ATOM
      1 C         145.2948  140.7807  163.7061 C.3     1  UNL1        0.0730
      2 C         140.1735  145.2215  156.7607 C.3     1  UNL1        0.0594
      3 C         140.4750  145.1078  158.2256 C.ar    1  UNL1        0.0886
      4 N         139.8503  145.9211  159.3202 N.ar    1  UNL1       -0.2427
      5 C         140.4434  145.4767  160.6243 C.ar    1  UNL1        0.0871
      6 C         140.2089  145.9222  162.0373 C.ar    1  UNL1        0.0193
      7 C         140.9657  145.2796  163.1617 C.ar    1  UNL1       -0.0030
      8 C         141.9572  144.1915  162.8730 C.ar    1  UNL1       -0.0241
      9 C         142.1916  143.7461  161.4601 C.ar    1  UNL1       -0.0172
     10 C         141.4348  144.3886  160.3357 C.ar    1  UNL1        0.0439
     11 S         141.4543  144.1606  158.8533 S.2     1  UNL1       -0.0711
     12 C         143.1270  142.6871  160.9563 C.3     1  UNL1        0.0439
     13 C         144.0589  141.8120  161.7413 C.3     1  UNL1        0.0768
     14 N         144.2855  141.7799  163.2236 N.3     1  UNL1       -0.2720
     15 C         143.6363  142.6148  164.2873 C.3     1  UNL1        0.0768
     16 C         142.6001  143.6880  164.1313 C.3     1  UNL1        0.0434
     17 C         144.8499  139.5895  164.5018 C.3     1  UNL1        0.0294
     18 C         143.6725  138.7799  164.0454 C.3     1  UNL1        0.0666
     19 S         142.3876  138.8235  164.8180 S.3     1  UNL1       -0.0756
     20 C         142.3742  139.3507  166.2222 C.ar    1  UNL1        0.1933
     21 N         143.2310  138.8661  167.3540 N.ar    1  UNL1       -0.1220
     22 N         142.8882  139.6709  168.5725 N.ar    1  UNL1       -0.1250
     23 C         141.8194  140.6529  168.1937 C.ar    1  UNL1        0.2029
     24 N         141.5018  140.4550  166.7411 N.ar    1  UNL1       -0.2860
     25 C         140.4894  141.2260  165.9470 C.3     1  UNL1        0.1341
     26 C         141.1804  141.6566  169.1071 C.ar    1  UNL1        0.1964
     27 O         141.2435  143.1480  168.9603 O.2     1  UNL1       -0.4283
     28 C         140.4683  143.7583  170.0902 C.ar    1  UNL1        0.2849
     29 N         139.9260  142.6440  170.9353 N.ar    1  UNL1       -0.2085
     30 C         140.3662  141.3451  170.3277 C.ar    1  UNL1        0.1001
     31 C         140.0479  139.9751  170.8493 C.3     1  UNL1        0.0556
@<TRIPOS>BOND
     1     2     3    1
     2     3     4   ar
     3     4     5   ar
     4     5     6   ar
     5     6     7   ar
     6     7     8   ar
     7     8     9   ar
     8     9    10   ar
     9    10    11   ar
    10     9    12    1
    11    12    13    1
    12    13    14    1
    13    14     1    1
    14     1    17    1
    15    17    18    1
    16    18    19    1
    17    19    20    1
    18    20    21   ar
    19    21    22   ar
    20    22    23   ar
    21    23    26    1
    22    26    27   ar
    23    27    28   ar
    24    28    29   ar
    25    29    30   ar
    26    30    31    1
    27    23    24   ar
    28    24    25    1
    29    14    15    1
    30    15    16    1
    31    11     3   ar
    32    24    20   ar
    33    10     5   ar
    34    30    26   ar
    35    16     8    1
@<TRIPOS>MOLECULE
*****
 31 35 0 0 0
SMALL
GASTEIGER

@<TRIPOS>ATOM
      1 C         138.8566  143.0252  158.1685 C.3     1  UNL1        0.0730
      2 C         137.8981  138.6991  166.8030 C.3     1  UNL1        0.0594
      3 C         138.5845  138.7110  165.4695 C.ar    1  UNL1        0.0886
      4 N         139.6262  137.7366  165.0053 N.ar    1  UNL1       -0.2427
      5 C         140.0354  138.1227  163.6148 C.ar    1  UNL1        0.0871
      6 C         141.0244  137.5264  162.6575 C.ar    1  UNL1        0.0193
      7 C         141.2245  138.1432  161.3049 C.ar    1  UNL1       -0.0030
      8 C         140.4356  139.3563  160.9096 C.ar    1  UNL1       -0.0241
      9 C         139.4467  139.9525  161.8669 C.ar    1  UNL1       -0.0172
     10 C         139.2466  139.3358  163.2195 C.ar    1  UNL1        0.0439
     11 S         138.3499  139.6993  164.3657 S.2     1  UNL1       -0.0711
     12 C         138.5643  141.1503  161.6748 C.3     1  UNL1        0.0439
     13 C         138.4530  142.0476  160.4779 C.3     1  UNL1        0.0768
     14 N         139.1965  141.9687  159.1776 N.3     1  UNL1       -0.2720
     15 C         140.2350  140.9731  158.7529 C.3     1  UNL1        0.0768
     16 C         140.7865  139.8105  159.5237 C.3     1  UNL1        0.0434
     17 C         139.9414  143.6492  157.3415 C.3     1  UNL1        0.0294
     18 C         141.2063  144.1204  157.9957 C.3     1  UNL1        0.0666
     19 S         141.1882  145.3353  158.8752 S.3     1  UNL1       -0.0756
     20 C         140.6214  145.2494  160.2613 C.ar    1  UNL1        0.1933
     21 N         139.4865  146.0677  160.8021 N.ar    1  UNL1       -0.1220
     22 N         139.2537  145.6542  162.2250 N.ar    1  UNL1       -0.1250
     23 C         140.2447  144.5803  162.5637 C.ar    1  UNL1        0.2029
     24 N         141.0901  144.3301  161.3500 N.ar    1  UNL1       -0.2860
     25 C         142.2077  143.3354  161.2438 C.3     1  UNL1        0.1341
     26 C         140.3687  143.8796  163.8842 C.ar    1  UNL1        0.1964
     27 O         141.6505  143.5419  164.5862 O.2     1  UNL1       -0.4283
     28 C         141.3067  142.8472  165.8704 C.ar    1  UNL1        0.2849
     29 N         139.8123  142.7555  165.9620 N.ar    1  UNL1       -0.2085
     30 C         139.2326  143.3936  164.7345 C.ar    1  UNL1        0.1001
     31 C         137.7730  143.5228  164.4136 C.3     1  UNL1        0.0556
@<TRIPOS>BOND
     1     2     3    1
     2     3     4   ar
     3     4     5   ar
     4     5     6   ar
     5     6     7   ar
     6     7     8   ar
     7     8     9   ar
     8     9    10   ar
     9    10    11   ar
    10     9    12    1
    11    12    13    1
    12    13    14    1
    13    14     1    1
    14     1    17    1
    15    17    18    1
    16    18    19    1
    17    19    20    1
    18    20    21   ar
    19    21    22   ar
    20    22    23   ar
    21    23    26    1
    22    26    27   ar
    23    27    28   ar
    24    28    29   ar
    25    29    30   ar
    26    30    31    1
    27    23    24   ar
    28    24    25    1
    29    14    15    1
    30    15    16    1
    31    11     3   ar
    32    24    20   ar
    33    10     5   ar
    34    30    26   ar
    35    16     8    1
@<TRIPOS>MOLECULE
*****
 31 35 0 0 0
SMALL
GASTEIGER

@<TRIPOS>ATOM
      1 C         143.7465  139.6771  159.4365 C.3     1  UNL1        0.0730
      2 C         137.6818  138.5773  166.9330 C.3     1  UNL1        0.0594
      3 C         138.9797  139.1405  166.4351 C.ar    1  UNL1        0.0886
      4 N         139.9699  139.9231  167.2455 N.ar    1  UNL1       -0.2427
      5 C         141.1175  140.2864  166.3505 C.ar    1  UNL1        0.0871
      6 C         142.3821  141.0533  166.6011 C.ar    1  UNL1        0.0193
      7 C         143.3657  141.2621  165.4879 C.ar    1  UNL1       -0.0030
      8 C         143.0846  140.7040  164.1242 C.ar    1  UNL1       -0.0241
      9 C         141.8201  139.9372  163.8738 C.ar    1  UNL1       -0.0172
     10 C         140.8365  139.7283  164.9868 C.ar    1  UNL1        0.0439
     11 S         139.5153  139.0202  165.0391 S.2     1  UNL1       -0.0711
     12 C         141.3487  139.3013  162.5995 C.3     1  UNL1        0.0439
     13 C         142.0256  139.2754  161.2611 C.3     1  UNL1        0.0768
     14 N         143.3408  139.8788  160.8665 N.3     1  UNL1       -0.2720
     15 C         144.3043  140.6572  161.7126 C.3     1  UNL1        0.0768
     16 C         144.1902  141.0245  163.1625 C.3     1  UNL1        0.0434
     17 C         143.3866  140.7030  158.4029 C.3     1  UNL1        0.0294
     18 C         143.9677  142.0836  158.4823 C.3     1  UNL1        0.0666
     19 S         143.0836  143.2522  158.8024 S.3     1  UNL1       -0.0756
     20 C         142.4143  143.3416  160.1418 C.ar    1  UNL1        0.1933
     21 N         142.9584  144.0365  161.3547 N.ar    1  UNL1       -0.1220
     22 N         141.9638  143.8762  162.4660 N.ar    1  UNL1       -0.1250
     23 C         140.8049  143.0823  161.9399 C.ar    1  UNL1        0.2029
     24 N         141.0833  142.7519  160.5034 N.ar    1  UNL1       -0.2860
     25 C         140.1880  141.9692  159.5893 C.3     1  UNL1        0.1341
     26 C         139.5823  142.6880  162.7143 C.ar    1  UNL1        0.1964
     27 O         138.3989  141.9416  162.1737 O.2     1  UNL1       -0.4283
     28 C         137.4136  141.7632  163.2906 C.ar    1  UNL1        0.2849
     29 N         137.9881  142.3994  164.5215 N.ar    1  UNL1       -0.2085
     30 C         139.3284  142.9710  164.1653 C.ar    1  UNL1        0.1001
     31 C         140.2526  143.6980  165.0968 C.3     1  UNL1        0.0556
@<TRIPOS>BOND
     1     2     3    1
     2     3     4   ar
     3     4     5   ar
     4     5     6   ar
     5     6     7   ar
     6     7     8   ar
     7     8     9   ar
     8     9    10   ar
     9    10    11   ar
    10     9    12    1
    11    12    13    1
    12    13    14    1
    13    14     1    1
    14     1    17    1
    15    17    18    1
    16    18    19    1
    17    19    20    1
    18    20    21   ar
    19    21    22   ar
    20    22    23   ar
    21    23    26    1
    22    26    27   ar
    23    27    28   ar
    24    28    29   ar
    25    29    30   ar
    26    30    31    1
    27    23    24   ar
    28    24    25    1
    29    14    15    1
    30    15    16    1
    31    11     3   ar
    32    24    20   ar
    33    10     5   ar
    34    30    26   ar
    35    16     8    1
@<TRIPOS>MOLECULE
*****
 31 35 0 0 0
SMALL
GASTEIGER

@<TRIPOS>ATOM
      1 C         138.3437  141.9818  158.8648 C.3     1  UNL1        0.0730
      2 C         140.4238  141.9374  168.3443 C.3     1  UNL1        0.0594
      3 C         140.0512  141.1354  167.1328 C.ar    1  UNL1        0.0886
      4 N         139.8449  139.6504  167.0877 N.ar    1  UNL1       -0.2427
      5 C         139.4856  139.2748  165.6806 C.ar    1  UNL1        0.0871
      6 C         139.1708  137.9537  165.0436 C.ar    1  UNL1        0.0193
      7 C         138.8402  137.8856  163.5821 C.ar    1  UNL1       -0.0030
      8 C         138.8244  139.1387  162.7575 C.ar    1  UNL1       -0.0241
      9 C         139.1392  140.4596  163.3945 C.ar    1  UNL1       -0.0172
     10 C         139.4698  140.5277  164.8560 C.ar    1  UNL1        0.0439
     11 S         139.8193  141.6776  165.7535 S.2     1  UNL1       -0.0711
     12 C         139.1792  141.8181  162.7598 C.3     1  UNL1        0.0439
     13 C         138.9141  142.1911  161.3312 C.3     1  UNL1        0.0768
     14 N         138.5437  141.2977  160.1847 N.3     1  UNL1       -0.2720
     15 C         138.3468  139.8107  160.1834 C.3     1  UNL1        0.0768
     16 C         138.4718  138.8498  161.3285 C.3     1  UNL1        0.0434
     17 C         139.5284  142.4796  158.0909 C.3     1  UNL1        0.0294
     18 C         139.6882  143.9474  157.8260 C.3     1  UNL1        0.0666
     19 S         140.9078  144.6696  158.3170 S.3     1  UNL1       -0.0756
     20 C         141.4777  144.3475  159.6666 C.ar    1  UNL1        0.1933
     21 N         141.1109  145.0125  160.9601 N.ar    1  UNL1       -0.1220
     22 N         141.9210  144.3799  162.0526 N.ar    1  UNL1       -0.1250
     23 C         142.7884  143.3238  161.4343 C.ar    1  UNL1        0.2029
     24 N         142.5144  143.3038  159.9596 N.ar    1  UNL1       -0.2860
     25 C         143.1633  142.3989  158.9545 C.3     1  UNL1        0.1341
     26 C         143.7593  142.4425  162.1627 C.ar    1  UNL1        0.1964
     27 O         145.0346  142.8865  162.8155 O.2     1  UNL1       -0.4283
     28 C         145.6890  141.6809  163.4225 C.ar    1  UNL1        0.2849
     29 N         144.8179  140.4917  163.1447 N.ar    1  UNL1       -0.2085
     30 C         143.6253  140.9624  162.3661 C.ar    1  UNL1        0.1001
     31 C         142.4969  140.1037  161.8768 C.3     1  UNL1        0.0556
@<TRIPOS>BOND
     1     2     3    1
     2     3     4   ar
     3     4     5   ar
     4     5     6   ar
     5     6     7   ar
     6     7     8   ar
     7     8     9   ar
     8     9    10   ar
     9    10    11   ar
    10     9    12    1
    11    12    13    1
    12    13    14    1
    13    14     1    1
    14     1    17    1
    15    17    18    1
    16    18    19    1
    17    19    20    1
    18    20    21   ar
    19    21    22   ar
    20    22    23   ar
    21    23    26    1
    22    26    27   ar
    23    27    28   ar
    24    28    29   ar
    25    29    30   ar
    26    30    31    1
    27    23    24   ar
    28    24    25    1
    29    14    15    1
    30    15    16    1
    31    11     3   ar
    32    24    20   ar
    33    10     5   ar
    34    30    26   ar
    35    16     8    1
