@<TRIPOS>MOLECULE
*****
 33 37 0 0 0
SMALL
GASTEIGER

@<TRIPOS>ATOM
      1 C         140.5231  140.1078  163.8350 C.ar    1  UNL1        0.0957
      2 C         139.4631  139.2572  163.2005 C.ar    1  UNL1        0.1191
      3 N         138.3994  138.6266  164.0496 N.ar    1  UNL1       -0.2223
      4 C         138.3958  138.8467  165.5333 C.ar    1  UNL1        0.1784
      5 N         137.4822  138.3584  166.6182 N.ar    1  UNL1       -0.2236
      6 C         137.9776  138.9073  167.9233 C.ar    1  UNL1        0.1066
      7 C         139.1973  139.7348  167.6450 C.ar    1  UNL1        0.0910
      8 C         139.4558  139.6973  166.1680 C.ar    1  UNL1        0.0988
      9 N         140.5194  140.3279  165.3188 N.ar    1  UNL1       -0.3481
     10 H         141.2152  140.8862  165.7353 H       1  UNL1        0.1661
     11 C         144.1126  140.8922  160.0429 C.3     1  UNL1        0.1537
     12 N         143.2366  141.0989  161.2428 N.ar    1  UNL1       -0.2487
     13 N         142.2332  140.1222  161.7806 N.ar    1  UNL1       -0.1677
     14 C         141.5867  140.7383  162.9858 C.ar    1  UNL1        0.1193
     15 C         142.1906  142.0957  163.1928 C.ar    1  UNL1        0.0382
     16 C         141.9437  143.1576  164.2231 C.ar    1  UNL1        0.0054
     17 C         142.7165  144.4423  164.1760 C.ar    1  UNL1        0.0298
     18 C         143.7362  144.6651  163.0988 C.ar    1  UNL1        0.1416
     19 F         144.5091  145.9499  163.0518 F       1  UNL1       -0.2041
     20 C         143.9831  143.6033  162.0686 C.ar    1  UNL1        0.0484
     21 C         143.2103  142.3186  162.1156 C.ar    1  UNL1        0.0817
     22 C         140.0151  140.4706  168.6648 C.2     1  UNL1        0.2488
     23 O         140.3070  139.8356  169.9921 O.2     1  UNL1       -0.2700
     24 N         140.5408  141.8414  168.3574 N.am    1  UNL1       -0.3038
     25 H         140.3492  142.2582  167.4863 H       1  UNL1        0.1496
     26 C         141.3585  142.5771  169.3772 C.3     1  UNL1        0.0596
     27 C         140.1102  143.1985  169.9299 C.3     1  UNL1        0.0197
     28 C         142.6069  141.9557  168.8246 C.3     1  UNL1        0.0336
     29 C         143.4247  142.6914  169.8444 C.3     1  UNL1        0.0540
     30 N         144.8856  142.7723  170.1747 N.3     1  UNL1       -0.3221
     31 C         142.1763  143.3128  170.3970 C.3     1  UNL1        0.0336
     32 H         145.0215  143.4058  170.9625 H       1  UNL1        0.1188
     33 H         145.3984  143.1215  169.3651 H       1  UNL1        0.1188
@<TRIPOS>BOND
     1    11    12    1
     2    12    13   ar
     3    13    14   ar
     4    14     1    1
     5     1     2   ar
     6     2     3   ar
     7     3     4   ar
     8     4     5   ar
     9     5     6   ar
    10     6     7   ar
    11     7    22    1
    12    22    23    2
    13    22    24   am
    14    24    26    1
    15    26    27    1
    16    26    28    1
    17    28    29    1
    18    29    30    1
    19    29    31    1
    20     7     8   ar
    21     8     9   ar
    22    14    15   ar
    23    15    16   ar
    24    16    17   ar
    25    17    18   ar
    26    18    19    1
    27    18    20   ar
    28    20    21   ar
    29    21    12   ar
    30     9     1   ar
    31    21    15   ar
    32     8     4    1
    33    31    26    1
    34    24    25    1
    35    30    32    1
    36    30    33    1
    37     9    10    1
@<TRIPOS>MOLECULE
*****
 33 37 0 0 0
SMALL
GASTEIGER

@<TRIPOS>ATOM
      1 C         142.8942  135.8994  156.3873 C.ar    1  UNL1        0.0957
      2 C         143.9903  136.5519  155.5983 C.ar    1  UNL1        0.1191
      3 N         144.3010  138.0047  155.8054 N.ar    1  UNL1       -0.2223
      4 C         143.5156  138.8049  156.8017 C.ar    1  UNL1        0.1784
      5 N         143.5936  140.2437  157.2187 N.ar    1  UNL1       -0.2236
      6 C         142.5458  140.4804  158.2655 C.ar    1  UNL1        0.1066
      7 C         141.8200  139.1880  158.4955 C.ar    1  UNL1        0.0910
      8 C         142.4194  138.1525  157.5909 C.ar    1  UNL1        0.0988
      9 N         142.1087  136.6997  157.3837 N.ar    1  UNL1       -0.3481
     10 H         141.3893  136.2715  157.9016 H       1  UNL1        0.1661
     11 C         140.5778  131.4416  154.7617 C.3     1  UNL1        0.1537
     12 N         141.5187  132.3976  155.4329 N.ar    1  UNL1       -0.2487
     13 N         141.4516  133.8946  155.3652 N.ar    1  UNL1       -0.1677
     14 C         142.5835  134.4466  156.1801 C.ar    1  UNL1        0.1193
     15 C         143.3501  133.2908  156.7516 C.ar    1  UNL1        0.0382
     16 C         144.5623  133.2279  157.6328 C.ar    1  UNL1        0.0054
     17 C         145.1164  131.8987  158.0522 C.ar    1  UNL1        0.0298
     18 C         144.4584  130.6323  157.5904 C.ar    1  UNL1        0.1416
     19 F         145.0126  129.3030  158.0098 F       1  UNL1       -0.2041
     20 C         143.2462  130.6952  156.7092 C.ar    1  UNL1        0.0484
     21 C         142.6920  132.0245  156.2898 C.ar    1  UNL1        0.0817
     22 C         140.6928  138.9694  159.4608 C.2     1  UNL1        0.2488
     23 O         139.4605  138.2359  159.0211 O.2     1  UNL1       -0.2700
     24 N         140.7979  139.4843  160.8657 N.am    1  UNL1       -0.3038
     25 H         141.6068  139.9657  161.1543 H       1  UNL1        0.1496
     26 C         139.6707  139.2657  161.8309 C.3     1  UNL1        0.0596
     27 C         140.2209  137.9112  162.1666 C.3     1  UNL1        0.0197
     28 C         139.1206  140.6202  161.4951 C.3     1  UNL1        0.0336
     29 C         137.9933  140.4016  162.4603 C.3     1  UNL1        0.0540
     30 N         136.8073  141.2048  162.9054 N.3     1  UNL1       -0.3221
     31 C         138.5435  139.0472  162.7961 C.3     1  UNL1        0.0336
     32 H         136.2768  140.6737  163.5961 H       1  UNL1        0.1188
     33 H         136.2125  141.4068  162.1018 H       1  UNL1        0.1188
@<TRIPOS>BOND
     1    11    12    1
     2    12    13   ar
     3    13    14   ar
     4    14     1    1
     5     1     2   ar
     6     2     3   ar
     7     3     4   ar
     8     4     5   ar
     9     5     6   ar
    10     6     7   ar
    11     7    22    1
    12    22    23    2
    13    22    24   am
    14    24    26    1
    15    26    27    1
    16    26    28    1
    17    28    29    1
    18    29    30    1
    19    29    31    1
    20     7     8   ar
    21     8     9   ar
    22    14    15   ar
    23    15    16   ar
    24    16    17   ar
    25    17    18   ar
    26    18    19    1
    27    18    20   ar
    28    20    21   ar
    29    21    12   ar
    30     9     1   ar
    31    21    15   ar
    32     8     4    1
    33    31    26    1
    34    24    25    1
    35    30    32    1
    36    30    33    1
    37     9    10    1
@<TRIPOS>MOLECULE
*****
 33 37 0 0 0
SMALL
GASTEIGER

@<TRIPOS>ATOM
      1 C         138.9927  142.3539  159.8389 C.ar    1  UNL1        0.0957
      2 C         138.4622  140.9671  160.0511 C.ar    1  UNL1        0.1191
      3 N         137.6799  140.2889  158.9657 N.ar    1  UNL1       -0.2223
      4 C         137.4282  140.9977  157.6679 C.ar    1  UNL1        0.1784
      5 N         136.6965  140.5860  156.4249 N.ar    1  UNL1       -0.2236
      6 C         136.7748  141.7183  155.4443 C.ar    1  UNL1        0.1066
      7 C         137.5549  142.8299  156.0813 C.ar    1  UNL1        0.0910
      8 C         137.9587  142.3845  157.4555 C.ar    1  UNL1        0.0988
      9 N         138.7410  143.0627  158.5410 N.ar    1  UNL1       -0.3481
     10 H         139.0892  143.9729  158.4016 H       1  UNL1        0.1661
     11 C         142.9730  144.4727  162.5863 C.3     1  UNL1        0.1537
     12 N         141.6045  144.0059  162.1872 N.ar    1  UNL1       -0.2487
     13 N         141.2473  143.3179  160.9030 N.ar    1  UNL1       -0.1677
     14 C         139.7750  143.0320  160.9243 C.ar    1  UNL1        0.1193
     15 C         139.2222  143.5432  162.2217 C.ar    1  UNL1        0.0382
     16 C         137.8354  143.5384  162.7931 C.ar    1  UNL1        0.0054
     17 C         137.5793  144.1355  164.1451 C.ar    1  UNL1        0.0298
     18 C         138.7100  144.7374  164.9256 C.ar    1  UNL1        0.1416
     19 F         138.4538  145.3345  166.2776 F       1  UNL1       -0.2041
     20 C         140.0968  144.7422  164.3541 C.ar    1  UNL1        0.0484
     21 C         140.3530  144.1451  163.0022 C.ar    1  UNL1        0.0817
     22 C         137.8751  144.1544  155.4541 C.2     1  UNL1        0.2488
     23 O         136.8404  144.8649  154.6327 O.2     1  UNL1       -0.2700
     24 N         139.2298  144.7684  155.6484 N.am    1  UNL1       -0.3038
     25 H         139.9088  144.3021  156.1875 H       1  UNL1        0.1496
     26 C         139.5498  146.0928  155.0212 C.3     1  UNL1        0.0596
     27 C         140.2163  145.3895  153.8761 C.3     1  UNL1        0.0197
     28 C         138.8834  146.7961  156.1662 C.3     1  UNL1        0.0336
     29 C         139.2035  148.1206  155.5391 C.3     1  UNL1        0.0540
     30 N         138.9585  149.5545  155.9052 N.3     1  UNL1       -0.3221
     31 C         139.8699  147.4173  154.3940 C.3     1  UNL1        0.0336
     32 H         139.3502  150.1611  155.1848 H       1  UNL1        0.1188
     33 H         139.4040  149.7578  156.8000 H       1  UNL1        0.1188
@<TRIPOS>BOND
     1    11    12    1
     2    12    13   ar
     3    13    14   ar
     4    14     1    1
     5     1     2   ar
     6     2     3   ar
     7     3     4   ar
     8     4     5   ar
     9     5     6   ar
    10     6     7   ar
    11     7    22    1
    12    22    23    2
    13    22    24   am
    14    24    26    1
    15    26    27    1
    16    26    28    1
    17    28    29    1
    18    29    30    1
    19    29    31    1
    20     7     8   ar
    21     8     9   ar
    22    14    15   ar
    23    15    16   ar
    24    16    17   ar
    25    17    18   ar
    26    18    19    1
    27    18    20   ar
    28    20    21   ar
    29    21    12   ar
    30     9     1   ar
    31    21    15   ar
    32     8     4    1
    33    31    26    1
    34    24    25    1
    35    30    32    1
    36    30    33    1
    37     9    10    1
@<TRIPOS>MOLECULE
*****
 33 37 0 0 0
SMALL
GASTEIGER

@<TRIPOS>ATOM
      1 C         140.4203  138.4220  158.3653 C.ar    1  UNL1        0.0957
      2 C         139.3809  139.4596  158.0608 C.ar    1  UNL1        0.1191
      3 N         138.7113  139.4791  156.7187 N.ar    1  UNL1       -0.2223
      4 C         139.0812  138.4610  155.6811 C.ar    1  UNL1        0.1784
      5 N         138.5954  138.2334  154.2803 N.ar    1  UNL1       -0.2236
      6 C         139.3346  137.0551  153.7190 C.ar    1  UNL1        0.1066
      7 C         140.2773  136.5544  154.7730 C.ar    1  UNL1        0.0910
      8 C         140.1207  137.4234  155.9856 C.ar    1  UNL1        0.0988
      9 N         140.7903  137.4038  157.3277 N.ar    1  UNL1       -0.3481
     10 H         141.4725  136.7228  157.5275 H       1  UNL1        0.1661
     11 C         144.1040  138.6231  162.1430 C.3     1  UNL1        0.1537
     12 N         142.7831  138.4949  161.4438 N.ar    1  UNL1       -0.2487
     13 N         142.5560  138.5892  159.9641 N.ar    1  UNL1       -0.1677
     14 C         141.0900  138.4024  159.7075 C.ar    1  UNL1        0.1193
     15 C         140.4111  138.1926  161.0285 C.ar    1  UNL1        0.0382
     16 C         138.9752  137.9569  161.3928 C.ar    1  UNL1        0.0054
     17 C         138.5858  137.7783  162.8303 C.ar    1  UNL1        0.0298
     18 C         139.6323  137.8355  163.9035 C.ar    1  UNL1        0.1416
     19 F         139.2428  137.6569  165.3410 F       1  UNL1       -0.2041
     20 C         141.0681  138.0712  163.5391 C.ar    1  UNL1        0.0484
     21 C         141.4575  138.2497  162.1016 C.ar    1  UNL1        0.0817
     22 C         141.2125  135.3894  154.6380 C.2     1  UNL1        0.2488
     23 O         142.1876  135.3384  153.4993 O.2     1  UNL1       -0.2700
     24 N         141.1725  134.2754  155.6417 N.am    1  UNL1       -0.3038
     25 H         140.5326  134.3089  156.3890 H       1  UNL1        0.1496
     26 C         142.1077  133.1104  155.5066 C.3     1  UNL1        0.0596
     27 C         141.0619  132.3602  154.7360 C.3     1  UNL1        0.0197
     28 C         143.1534  133.8605  156.2772 C.3     1  UNL1        0.0336
     29 C         144.0886  132.6955  156.1422 C.3     1  UNL1        0.0540
     30 N         145.4893  132.4021  156.5916 N.3     1  UNL1       -0.3221
     31 C         143.0429  131.9454  155.3716 C.3     1  UNL1        0.0336
     32 H         145.7567  131.4674  156.2829 H       1  UNL1        0.1188
     33 H         145.5371  132.4506  157.6093 H       1  UNL1        0.1188
@<TRIPOS>BOND
     1    11    12    1
     2    12    13   ar
     3    13    14   ar
     4    14     1    1
     5     1     2   ar
     6     2     3   ar
     7     3     4   ar
     8     4     5   ar
     9     5     6   ar
    10     6     7   ar
    11     7    22    1
    12    22    23    2
    13    22    24   am
    14    24    26    1
    15    26    27    1
    16    26    28    1
    17    28    29    1
    18    29    30    1
    19    29    31    1
    20     7     8   ar
    21     8     9   ar
    22    14    15   ar
    23    15    16   ar
    24    16    17   ar
    25    17    18   ar
    26    18    19    1
    27    18    20   ar
    28    20    21   ar
    29    21    12   ar
    30     9     1   ar
    31    21    15   ar
    32     8     4    1
    33    31    26    1
    34    24    25    1
    35    30    32    1
    36    30    33    1
    37     9    10    1
@<TRIPOS>MOLECULE
*****
 33 37 0 0 0
SMALL
GASTEIGER

@<TRIPOS>ATOM
      1 C         139.1436  142.7801  164.3484 C.ar    1  UNL1        0.0957
      2 C         138.2627  143.9840  164.5046 C.ar    1  UNL1        0.1191
      3 N         138.3351  145.1010  163.5060 N.ar    1  UNL1       -0.2223
      4 C         139.2883  145.0140  162.3512 C.ar    1  UNL1        0.1784
      5 N         139.5793  145.9515  161.2170 N.ar    1  UNL1       -0.2236
      6 C         140.6400  145.3270  160.3598 C.ar    1  UNL1        0.1066
      7 C         141.0046  144.0035  160.9642 C.ar    1  UNL1        0.0910
      8 C         140.1693  143.8100  162.1949 C.ar    1  UNL1        0.0988
      9 N         140.0969  142.6931  163.1935 N.ar    1  UNL1       -0.3481
     10 H         140.6751  141.9028  163.0910 H       1  UNL1        0.1661
     11 C         137.8455  138.2504  166.7311 C.3     1  UNL1        0.1537
     12 N         138.4746  139.5811  166.4422 N.ar    1  UNL1       -0.2487
     13 N         138.2434  140.4188  165.2196 N.ar    1  UNL1       -0.1677
     14 C         139.0713  141.6631  165.3470 C.ar    1  UNL1        0.1193
     15 C         139.8142  141.5944  166.6483 C.ar    1  UNL1        0.0382
     16 C         140.7788  142.5373  167.3044 C.ar    1  UNL1        0.0054
     17 C         141.3746  142.1935  168.6373 C.ar    1  UNL1        0.0298
     18 C         141.0059  140.9067  169.3141 C.ar    1  UNL1        0.1416
     19 F         141.6018  140.5628  170.6471 F       1  UNL1       -0.2041
     20 C         140.0413  139.9637  168.6581 C.ar    1  UNL1        0.0484
     21 C         139.4454  140.3076  167.3252 C.ar    1  UNL1        0.0817
     22 C         142.0255  143.0422  160.4314 C.2     1  UNL1        0.2488
     23 O         143.4530  143.4751  160.2739 O.2     1  UNL1       -0.2700
     24 N         141.6188  141.6480  160.0561 N.am    1  UNL1       -0.3038
     25 H         140.6819  141.3639  160.1594 H       1  UNL1        0.1496
     26 C         142.6396  140.6868  159.5233 C.3     1  UNL1        0.0596
     27 C         142.4255  141.2261  158.1400 C.3     1  UNL1        0.0197
     28 C         142.8537  140.1474  160.9064 C.3     1  UNL1        0.0336
     29 C         143.8746  139.1861  160.3736 C.3     1  UNL1        0.0540
     30 N         144.7478  138.1251  160.9749 N.3     1  UNL1       -0.3221
     31 C         143.6605  139.7255  158.9905 C.3     1  UNL1        0.0336
     32 H         145.3114  137.6933  160.2426 H       1  UNL1        0.1188
     33 H         144.1643  137.4153  161.4179 H       1  UNL1        0.1188
@<TRIPOS>BOND
     1    11    12    1
     2    12    13   ar
     3    13    14   ar
     4    14     1    1
     5     1     2   ar
     6     2     3   ar
     7     3     4   ar
     8     4     5   ar
     9     5     6   ar
    10     6     7   ar
    11     7    22    1
    12    22    23    2
    13    22    24   am
    14    24    26    1
    15    26    27    1
    16    26    28    1
    17    28    29    1
    18    29    30    1
    19    29    31    1
    20     7     8   ar
    21     8     9   ar
    22    14    15   ar
    23    15    16   ar
    24    16    17   ar
    25    17    18   ar
    26    18    19    1
    27    18    20   ar
    28    20    21   ar
    29    21    12   ar
    30     9     1   ar
    31    21    15   ar
    32     8     4    1
    33    31    26    1
    34    24    25    1
    35    30    32    1
    36    30    33    1
    37     9    10    1
@<TRIPOS>MOLECULE
*****
 33 37 0 0 0
SMALL
GASTEIGER

@<TRIPOS>ATOM
      1 C         140.4056  143.3024  165.2656 C.ar    1  UNL1        0.0957
      2 C         139.2302  144.2102  165.4754 C.ar    1  UNL1        0.1191
      3 N         138.7516  145.0884  164.3574 N.ar    1  UNL1       -0.2223
      4 C         139.4487  145.0588  163.0295 C.ar    1  UNL1        0.1784
      5 N         139.2054  145.8052  161.7514 N.ar    1  UNL1       -0.2236
      6 C         140.2306  145.3588  160.7516 C.ar    1  UNL1        0.1066
      7 C         141.1074  144.3364  161.4118 C.ar    1  UNL1        0.0910
      8 C         140.6242  144.1510  162.8196 C.ar    1  UNL1        0.0988
      9 N         141.1027  143.2728  163.9376 N.ar    1  UNL1       -0.3481
     10 H         141.8742  142.6770  163.7998 H       1  UNL1        0.1661
     11 C         141.2864  141.3475  170.0908 C.3     1  UNL1        0.1537
     12 N         141.2890  141.5257  168.6014 N.ar    1  UNL1       -0.2487
     13 N         140.6290  142.6407  167.8457 N.ar    1  UNL1       -0.1677
     14 C         140.8841  142.4243  166.3835 C.ar    1  UNL1        0.1193
     15 C         141.7018  141.1755  166.2355 C.ar    1  UNL1        0.0382
     16 C         142.2508  140.4723  165.0297 C.ar    1  UNL1        0.0054
     17 C         143.0501  139.2138  165.1946 C.ar    1  UNL1        0.0298
     18 C         143.3003  138.6584  166.5653 C.ar    1  UNL1        0.1416
     19 F         144.0996  137.3998  166.7302 F       1  UNL1       -0.2041
     20 C         142.7513  139.3616  167.7712 C.ar    1  UNL1        0.0484
     21 C         141.9520  140.6201  167.6063 C.ar    1  UNL1        0.0817
     22 C         142.2645  143.6244  160.7757 C.2     1  UNL1        0.2488
     23 O         143.6549  143.8392  161.2959 O.2     1  UNL1       -0.2700
     24 N         142.0310  142.6977  159.6196 N.am    1  UNL1       -0.3038
     25 H         141.1184  142.5567  159.2783 H       1  UNL1        0.1496
     26 C         143.1880  141.9858  158.9837 C.3     1  UNL1        0.0596
     27 C         142.9483  140.8017  159.8729 C.3     1  UNL1        0.0197
     28 C         143.4277  143.1697  158.0945 C.3     1  UNL1        0.0336
     29 C         144.5848  142.4578  157.4584 C.3     1  UNL1        0.0540
     30 N         145.5724  142.7916  156.3799 N.3     1  UNL1       -0.3221
     31 C         144.3451  141.2739  158.3476 C.3     1  UNL1        0.0336
     32 H         146.2121  142.0078  156.2503 H       1  UNL1        0.1188
     33 H         146.1014  143.6214  156.6483 H       1  UNL1        0.1188
@<TRIPOS>BOND
     1    11    12    1
     2    12    13   ar
     3    13    14   ar
     4    14     1    1
     5     1     2   ar
     6     2     3   ar
     7     3     4   ar
     8     4     5   ar
     9     5     6   ar
    10     6     7   ar
    11     7    22    1
    12    22    23    2
    13    22    24   am
    14    24    26    1
    15    26    27    1
    16    26    28    1
    17    28    29    1
    18    29    30    1
    19    29    31    1
    20     7     8   ar
    21     8     9   ar
    22    14    15   ar
    23    15    16   ar
    24    16    17   ar
    25    17    18   ar
    26    18    19    1
    27    18    20   ar
    28    20    21   ar
    29    21    12   ar
    30     9     1   ar
    31    21    15   ar
    32     8     4    1
    33    31    26    1
    34    24    25    1
    35    30    32    1
    36    30    33    1
    37     9    10    1
@<TRIPOS>MOLECULE
*****
 33 37 0 0 0
SMALL
GASTEIGER

@<TRIPOS>ATOM
      1 C         138.5148  142.1742  160.2694 C.ar    1  UNL1        0.0957
      2 C         138.2958  140.6921  160.3410 C.ar    1  UNL1        0.1191
      3 N         137.9843  139.9188  159.0940 N.ar    1  UNL1       -0.2223
      4 C         137.8918  140.6277  157.7753 C.ar    1  UNL1        0.1784
      5 N         137.6023  140.1344  156.3887 N.ar    1  UNL1       -0.2236
      6 C         137.6424  141.3116  155.4600 C.ar    1  UNL1        0.1066
      7 C         137.9567  142.5325  156.2727 C.ar    1  UNL1        0.0910
      8 C         138.1108  142.1099  157.7036 C.ar    1  UNL1        0.0988
      9 N         138.4223  142.8831  158.9506 N.ar    1  UNL1       -0.3481
     10 H         138.5661  143.8560  158.9036 H       1  UNL1        0.1661
     11 C         138.0069  144.6091  164.9270 C.3     1  UNL1        0.1537
     12 N         138.5929  144.0667  163.6572 N.ar    1  UNL1       -0.2487
     13 N         137.8560  143.2875  162.6085 N.ar    1  UNL1       -0.1677
     14 C         138.8263  142.9475  161.5164 C.ar    1  UNL1        0.1193
     15 C         140.1630  143.5165  161.8901 C.ar    1  UNL1        0.0382
     16 C         141.4928  143.4941  161.1966 C.ar    1  UNL1        0.0054
     17 C         142.6783  144.1634  161.8262 C.ar    1  UNL1        0.0298
     18 C         142.5340  144.8551  163.1493 C.ar    1  UNL1        0.1416
     19 F         143.7197  145.5245  163.7790 F       1  UNL1       -0.2041
     20 C         141.2042  144.8775  163.8429 C.ar    1  UNL1        0.0484
     21 C         140.0187  144.2082  163.2133 C.ar    1  UNL1        0.0817
     22 C         138.0929  143.9307  155.7468 C.2     1  UNL1        0.2488
     23 O         136.9145  144.6139  155.1186 O.2     1  UNL1       -0.2700
     24 N         139.4076  144.6457  155.8490 N.am    1  UNL1       -0.3038
     25 H         140.1810  144.1974  156.2614 H       1  UNL1        0.1496
     26 C         139.5438  146.0439  155.3231 C.3     1  UNL1        0.0596
     27 C         140.2098  145.5143  154.0878 C.3     1  UNL1        0.0197
     28 C         138.8777  146.5734  156.5584 C.3     1  UNL1        0.0336
     29 C         139.0139  147.9716  156.0325 C.3     1  UNL1        0.0540
     30 N         138.6393  149.3347  156.5341 N.3     1  UNL1       -0.3221
     31 C         139.6799  147.4421  154.7972 C.3     1  UNL1        0.0336
     32 H         138.9180  150.0375  155.8493 H       1  UNL1        0.1188
     33 H         139.1149  149.5142  157.4184 H       1  UNL1        0.1188
@<TRIPOS>BOND
     1    11    12    1
     2    12    13   ar
     3    13    14   ar
     4    14     1    1
     5     1     2   ar
     6     2     3   ar
     7     3     4   ar
     8     4     5   ar
     9     5     6   ar
    10     6     7   ar
    11     7    22    1
    12    22    23    2
    13    22    24   am
    14    24    26    1
    15    26    27    1
    16    26    28    1
    17    28    29    1
    18    29    30    1
    19    29    31    1
    20     7     8   ar
    21     8     9   ar
    22    14    15   ar
    23    15    16   ar
    24    16    17   ar
    25    17    18   ar
    26    18    19    1
    27    18    20   ar
    28    20    21   ar
    29    21    12   ar
    30     9     1   ar
    31    21    15   ar
    32     8     4    1
    33    31    26    1
    34    24    25    1
    35    30    32    1
    36    30    33    1
    37     9    10    1
@<TRIPOS>MOLECULE
*****
 33 37 0 0 0
SMALL
GASTEIGER

@<TRIPOS>ATOM
      1 C         143.3912  139.8787  160.9466 C.ar    1  UNL1        0.0957
      2 C         143.9322  141.2672  160.7760 C.ar    1  UNL1        0.1191
      3 N         144.2200  141.7965  159.4023 N.ar    1  UNL1       -0.2223
      4 C         143.9669  140.9373  158.1992 C.ar    1  UNL1        0.1784
      5 N         144.1532  141.1852  156.7316 N.ar    1  UNL1       -0.2236
      6 C         143.7273  139.9498  155.9951 C.ar    1  UNL1        0.1066
      7 C         143.2778  138.9384  157.0075 C.ar    1  UNL1        0.0910
      8 C         143.4259  139.5487  158.3697 C.ar    1  UNL1        0.0988
      9 N         143.1381  139.0193  159.7434 N.ar    1  UNL1       -0.3481
     10 H         142.7830  138.1079  159.8553 H       1  UNL1        0.1661
     11 C         143.9670  138.4167  165.9875 C.3     1  UNL1        0.1537
     12 N         143.3680  138.6774  164.6373 N.ar    1  UNL1       -0.2487
     13 N         144.0792  139.2689  163.4565 N.ar    1  UNL1       -0.1677
     14 C         143.1033  139.3493  162.3202 C.ar    1  UNL1        0.1193
     15 C         141.7890  138.8076  162.7987 C.ar    1  UNL1        0.0382
     16 C         140.4644  138.6387  162.1155 C.ar    1  UNL1        0.0054
     17 C         139.3033  138.0546  162.8643 C.ar    1  UNL1        0.0298
     18 C         139.4669  137.6393  164.2963 C.ar    1  UNL1        0.1416
     19 F         138.3058  137.0551  165.0451 F       1  UNL1       -0.2041
     20 C         140.7915  137.8081  164.9796 C.ar    1  UNL1        0.0484
     21 C         141.9526  138.3922  164.2308 C.ar    1  UNL1        0.0817
     22 C         142.7695  137.5588  156.7099 C.2     1  UNL1        0.2488
     23 O         141.3511  137.1956  157.0360 O.2     1  UNL1       -0.2700
     24 N         143.6796  136.5425  156.0864 N.am    1  UNL1       -0.3038
     25 H         144.6105  136.7809  155.8724 H       1  UNL1        0.1496
     26 C         143.1712  135.1630  155.7888 C.3     1  UNL1        0.0596
     27 C         142.7992  135.5990  154.4026 C.3     1  UNL1        0.0197
     28 C         143.5431  134.7270  157.1750 C.3     1  UNL1        0.0336
     29 C         143.0348  133.3474  156.8775 C.3     1  UNL1        0.0540
     30 N         142.9383  132.0636  157.6472 N.3     1  UNL1       -0.3221
     31 C         142.6629  133.7834  155.4913 C.3     1  UNL1        0.0336
     32 H         142.5174  131.3449  157.0584 H       1  UNL1        0.1188
     33 H         142.3601  132.2063  158.4753 H       1  UNL1        0.1188
@<TRIPOS>BOND
     1    11    12    1
     2    12    13   ar
     3    13    14   ar
     4    14     1    1
     5     1     2   ar
     6     2     3   ar
     7     3     4   ar
     8     4     5   ar
     9     5     6   ar
    10     6     7   ar
    11     7    22    1
    12    22    23    2
    13    22    24   am
    14    24    26    1
    15    26    27    1
    16    26    28    1
    17    28    29    1
    18    29    30    1
    19    29    31    1
    20     7     8   ar
    21     8     9   ar
    22    14    15   ar
    23    15    16   ar
    24    16    17   ar
    25    17    18   ar
    26    18    19    1
    27    18    20   ar
    28    20    21   ar
    29    21    12   ar
    30     9     1   ar
    31    21    15   ar
    32     8     4    1
    33    31    26    1
    34    24    25    1
    35    30    32    1
    36    30    33    1
    37     9    10    1
@<TRIPOS>MOLECULE
*****
 33 37 0 0 0
SMALL
GASTEIGER

@<TRIPOS>ATOM
      1 C         139.1171  142.7824  164.2759 C.ar    1  UNL1        0.0957
      2 C         138.1314  143.9063  164.3982 C.ar    1  UNL1        0.1191
      3 N         138.1620  145.0409  163.4175 N.ar    1  UNL1       -0.2223
      4 C         139.1784  145.0515  162.3144 C.ar    1  UNL1        0.1784
      5 N         139.4487  146.0276  161.2080 N.ar    1  UNL1       -0.2236
      6 C         140.6015  145.5070  160.4019 C.ar    1  UNL1        0.1066
      7 C         141.0437  144.2091  161.0101 C.ar    1  UNL1        0.0910
      8 C         140.1642  143.9276  162.1921 C.ar    1  UNL1        0.0988
      9 N         140.1335  142.7930  163.1728 N.ar    1  UNL1       -0.3481
     10 H         140.7806  142.0553  163.0925 H       1  UNL1        0.1661
     11 C         137.9917  138.1687  166.5840 C.3     1  UNL1        0.1537
     12 N         138.5692  139.5272  166.3176 N.ar    1  UNL1       -0.2487
     13 N         138.3077  140.3745  165.1078 N.ar    1  UNL1       -0.1677
     14 C         139.0864  141.6478  165.2566 C.ar    1  UNL1        0.1193
     15 C         139.8293  141.5874  166.5584 C.ar    1  UNL1        0.0382
     16 C         140.7555  142.5565  167.2314 C.ar    1  UNL1        0.0054
     17 C         141.3619  142.2149  168.5601 C.ar    1  UNL1        0.0298
     18 C         141.0422  140.9043  169.2158 C.ar    1  UNL1        0.1416
     19 F         141.6488  140.5627  170.5445 F       1  UNL1       -0.2041
     20 C         140.1161  139.9352  168.5428 C.ar    1  UNL1        0.0484
     21 C         139.5096  140.2767  167.2141 C.ar    1  UNL1        0.0817
     22 C         142.1681  143.3445  160.5219 C.2     1  UNL1        0.2488
     23 O         143.3454  143.0725  161.4107 O.2     1  UNL1       -0.2700
     24 N         142.1152  142.7519  159.1450 N.am    1  UNL1       -0.3038
     25 H         141.3425  142.9304  158.5616 H       1  UNL1        0.1496
     26 C         143.2395  141.8873  158.6569 C.3     1  UNL1        0.0596
     27 C         142.5187  140.6692  159.1539 C.3     1  UNL1        0.0197
     28 C         143.9603  143.1052  158.1599 C.3     1  UNL1        0.0336
     29 C         145.0847  142.2406  157.6717 C.3     1  UNL1        0.0540
     30 N         146.3895  142.4905  156.9751 N.3     1  UNL1       -0.3221
     31 C         144.3640  141.0227  158.1688 C.3     1  UNL1        0.0336
     32 H         146.8681  141.6030  156.8213 H       1  UNL1        0.1188
     33 H         146.9728  143.0958  157.5527 H       1  UNL1        0.1188
@<TRIPOS>BOND
     1    11    12    1
     2    12    13   ar
     3    13    14   ar
     4    14     1    1
     5     1     2   ar
     6     2     3   ar
     7     3     4   ar
     8     4     5   ar
     9     5     6   ar
    10     6     7   ar
    11     7    22    1
    12    22    23    2
    13    22    24   am
    14    24    26    1
    15    26    27    1
    16    26    28    1
    17    28    29    1
    18    29    30    1
    19    29    31    1
    20     7     8   ar
    21     8     9   ar
    22    14    15   ar
    23    15    16   ar
    24    16    17   ar
    25    17    18   ar
    26    18    19    1
    27    18    20   ar
    28    20    21   ar
    29    21    12   ar
    30     9     1   ar
    31    21    15   ar
    32     8     4    1
    33    31    26    1
    34    24    25    1
    35    30    32    1
    36    30    33    1
    37     9    10    1
