@<TRIPOS>MOLECULE
*****
 31 34 0 0 0
SMALL
GASTEIGER

@<TRIPOS>ATOM
      1 O         141.2899  139.3098  163.0014 O.2     1  UNL1       -0.2734
      2 C         139.9422  139.0774  163.6175 C.2     1  UNL1        0.2420
      3 N         139.7332  139.3295  165.0814 N.am    1  UNL1       -0.2760
      4 C         138.3854  139.0971  165.6975 C.3     1  UNL1        0.0983
      5 C         138.1764  139.3491  167.1613 C.3     1  UNL1        0.0476
      6 C         139.3152  139.8334  168.0091 C.ar    1  UNL1       -0.0229
      7 C         139.1062  140.0854  169.4729 C.ar    1  UNL1       -0.0045
      8 C         140.2449  140.5697  170.3206 C.ar    1  UNL1       -0.0003
      9 C         141.5927  140.8021  169.7045 C.ar    1  UNL1       -0.0003
     10 C         141.8017  140.5501  168.2407 C.ar    1  UNL1       -0.0030
     11 C         140.6630  140.0658  167.3930 C.ar    1  UNL1       -0.0082
     12 C         140.8719  139.8138  165.9291 C.3     1  UNL1        0.0975
     13 C         142.2197  140.0461  165.3130 C.3     1  UNL1        0.0224
     14 C         142.5645  141.3927  164.7491 C.3     1  UNL1        0.0020
     15 C         143.9123  141.6250  164.1330 C.3     1  UNL1        0.0001
     16 C         144.9152  140.5107  164.0808 C.3     1  UNL1        0.0000
     17 C         144.5704  139.1643  164.6447 C.3     1  UNL1        0.0001
     18 C         143.2226  138.9319  165.2608 C.3     1  UNL1        0.0020
     19 C         138.8034  138.5931  162.7698 C.3     1  UNL1        0.1552
     20 N         137.7178  139.5430  162.3585 N.3     1  UNL1       -0.2879
     21 H         137.0803  139.6224  163.1507 H       1  UNL1        0.1238
     22 C         138.0636  140.9410  161.9390 C.3     1  UNL1        0.0961
     23 C         138.0044  142.0597  162.9365 C.3     1  UNL1        0.1027
     24 O         136.7086  141.3394  163.1653 O.3     1  UNL1       -0.3854
     25 C         137.3684  142.8579  164.0358 C.3     1  UNL1        0.0283
     26 C         137.8975  144.0755  164.7339 C.3     1  UNL1        0.0024
     27 C         139.1932  144.7957  164.5051 C.3     1  UNL1        0.0001
     28 C         140.2799  144.4762  163.5216 C.3     1  UNL1        0.0001
     29 C         140.3392  143.3575  162.5241 C.3     1  UNL1        0.0024
     30 C         139.3265  142.2820  162.2637 C.3     1  UNL1        0.0283
     31 H         136.2119  141.7835  163.8703 H       1  UNL1        0.2103
@<TRIPOS>BOND
     1     1     2    2
     2     2    19    1
     3    19    20    1
     4    20    22    1
     5    22    23    1
     6    23    24    1
     7    23    25    1
     8    25    26    1
     9    26    27    1
    10    27    28    1
    11    28    29    1
    12    29    30    1
    13     2     3   am
    14     3     4    1
    15     4     5    1
    16     5     6    1
    17     6     7   ar
    18     7     8   ar
    19     8     9   ar
    20     9    10   ar
    21    10    11   ar
    22    11    12    1
    23    12    13    1
    24    13    14    1
    25    14    15    1
    26    15    16    1
    27    16    17    1
    28    17    18    1
    29    30    23    1
    30    12     3    1
    31    18    13    1
    32    11     6   ar
    33    20    21    1
    34    24    31    1
@<TRIPOS>MOLECULE
*****
 31 34 0 0 0
SMALL
GASTEIGER

@<TRIPOS>ATOM
      1 O         143.3827  141.4591  162.6093 O.2     1  UNL1       -0.2734
      2 C         143.5132  140.1066  163.2446 C.2     1  UNL1        0.2420
      3 N         143.2848  139.9451  164.7184 N.am    1  UNL1       -0.2760
      4 C         143.4153  138.5925  165.3537 C.3     1  UNL1        0.0983
      5 C         143.1869  138.4310  166.8274 C.3     1  UNL1        0.0476
      6 C         142.8280  139.6219  167.6657 C.ar    1  UNL1       -0.0229
      7 C         142.5996  139.4604  169.1394 C.ar    1  UNL1       -0.0045
      8 C         142.2406  140.6513  169.9777 C.ar    1  UNL1       -0.0003
      9 C         142.1101  142.0038  169.3423 C.ar    1  UNL1       -0.0003
     10 C         142.3385  142.1654  167.8687 C.ar    1  UNL1       -0.0030
     11 C         142.6974  140.9744  167.0304 C.ar    1  UNL1       -0.0082
     12 C         142.9258  141.1360  165.5567 C.3     1  UNL1        0.0975
     13 C         142.7953  142.4885  164.9213 C.3     1  UNL1        0.0224
     14 C         144.0026  143.3659  164.7704 C.3     1  UNL1        0.0020
     15 C         143.8720  144.7184  164.1351 C.3     1  UNL1        0.0001
     16 C         142.5342  145.1935  163.6506 C.3     1  UNL1        0.0000
     17 C         141.3271  144.3161  163.8015 C.3     1  UNL1        0.0001
     18 C         141.4576  142.9636  164.4369 C.3     1  UNL1        0.0020
     19 C         143.8721  138.9157  162.4063 C.3     1  UNL1        0.1552
     20 N         142.8486  137.8531  162.1357 N.3     1  UNL1       -0.2879
     21 H         142.9353  137.1637  162.8824 H       1  UNL1        0.1238
     22 C         141.3957  138.2161  162.0482 C.3     1  UNL1        0.0961
     23 C         140.5111  138.0645  163.2500 C.3     1  UNL1        0.1027
     24 O         141.2160  136.7420  163.1854 O.3     1  UNL1       -0.3854
     25 C         139.9401  137.3244  164.4231 C.3     1  UNL1        0.0283
     26 C         138.9170  137.7914  165.4156 C.3     1  UNL1        0.0024
     27 C         138.2122  139.1138  165.4801 C.3     1  UNL1        0.0001
     28 C         138.3563  140.2960  164.5681 C.3     1  UNL1        0.0001
     29 C         139.2410  140.4476  163.3663 C.3     1  UNL1        0.0024
     30 C         140.2000  139.4545  162.7796 C.3     1  UNL1        0.0283
     31 H         140.9128  136.1781  163.9141 H       1  UNL1        0.2103
@<TRIPOS>BOND
     1     1     2    2
     2     2    19    1
     3    19    20    1
     4    20    22    1
     5    22    23    1
     6    23    24    1
     7    23    25    1
     8    25    26    1
     9    26    27    1
    10    27    28    1
    11    28    29    1
    12    29    30    1
    13     2     3   am
    14     3     4    1
    15     4     5    1
    16     5     6    1
    17     6     7   ar
    18     7     8   ar
    19     8     9   ar
    20     9    10   ar
    21    10    11   ar
    22    11    12    1
    23    12    13    1
    24    13    14    1
    25    14    15    1
    26    15    16    1
    27    16    17    1
    28    17    18    1
    29    30    23    1
    30    12     3    1
    31    18    13    1
    32    11     6   ar
    33    20    21    1
    34    24    31    1
@<TRIPOS>MOLECULE
*****
 31 34 0 0 0
SMALL
GASTEIGER

@<TRIPOS>ATOM
      1 O         139.9249  141.0513  162.7650 O.2     1  UNL1       -0.2734
      2 C         139.2321  140.0040  163.5855 C.2     1  UNL1        0.2420
      3 N         139.2376  140.0991  165.0826 N.am    1  UNL1       -0.2760
      4 C         138.5448  139.0519  165.9031 C.3     1  UNL1        0.0983
      5 C         138.5503  139.1469  167.4001 C.3     1  UNL1        0.0476
      6 C         139.2487  140.2892  168.0765 C.ar    1  UNL1       -0.0229
      7 C         139.2542  140.3842  169.5735 C.ar    1  UNL1       -0.0045
      8 C         139.9525  141.5265  170.2499 C.ar    1  UNL1       -0.0003
      9 C         140.6453  142.5737  169.4293 C.ar    1  UNL1       -0.0003
     10 C         140.6398  142.4787  167.9324 C.ar    1  UNL1       -0.0030
     11 C         139.9415  141.3364  167.2560 C.ar    1  UNL1       -0.0082
     12 C         139.9359  141.2414  165.7590 C.3     1  UNL1        0.0975
     13 C         140.6287  142.2886  164.9384 C.3     1  UNL1        0.0224
     14 C         139.8956  143.5348  164.5389 C.3     1  UNL1        0.0020
     15 C         140.5884  144.5821  163.7184 C.3     1  UNL1        0.0001
     16 C         142.0143  144.3831  163.2973 C.3     1  UNL1        0.0000
     17 C         142.7474  143.1369  163.6968 C.3     1  UNL1        0.0001
     18 C         142.0546  142.0897  164.5173 C.3     1  UNL1        0.0020
     19 C         138.5338  138.8618  162.9091 C.3     1  UNL1        0.1552
     20 N         139.3144  137.6567  162.4753 N.3     1  UNL1       -0.2879
     21 H         139.6460  137.8455  161.5294 H       1  UNL1        0.1238
     22 C         140.5050  137.2082  163.2700 C.3     1  UNL1        0.0961
     23 C         141.8376  137.8637  163.0591 C.3     1  UNL1        0.1027
     24 O         141.3775  137.5848  161.6589 O.3     1  UNL1       -0.3854
     25 C         142.9655  138.3950  162.2251 C.3     1  UNL1        0.0283
     26 C         144.2389  139.0448  162.6791 C.3     1  UNL1        0.0024
     27 C         144.6990  139.3237  164.0793 C.3     1  UNL1        0.0001
     28 C         143.9993  139.0217  165.3713 C.3     1  UNL1        0.0001
     29 C         142.6666  138.3662  165.5822 C.3     1  UNL1        0.0024
     30 C         141.7046  137.8508  164.5532 C.3     1  UNL1        0.0283
     31 H         142.0476  137.8957  161.0304 H       1  UNL1        0.2103
@<TRIPOS>BOND
     1     1     2    2
     2     2    19    1
     3    19    20    1
     4    20    22    1
     5    22    23    1
     6    23    24    1
     7    23    25    1
     8    25    26    1
     9    26    27    1
    10    27    28    1
    11    28    29    1
    12    29    30    1
    13     2     3   am
    14     3     4    1
    15     4     5    1
    16     5     6    1
    17     6     7   ar
    18     7     8   ar
    19     8     9   ar
    20     9    10   ar
    21    10    11   ar
    22    11    12    1
    23    12    13    1
    24    13    14    1
    25    14    15    1
    26    15    16    1
    27    16    17    1
    28    17    18    1
    29    30    23    1
    30    12     3    1
    31    18    13    1
    32    11     6   ar
    33    20    21    1
    34    24    31    1
@<TRIPOS>MOLECULE
*****
 31 34 0 0 0
SMALL
GASTEIGER

@<TRIPOS>ATOM
      1 O         141.0511  141.1120  162.8753 O.2     1  UNL1       -0.2734
      2 C         142.0211  140.0978  163.4050 C.2     1  UNL1        0.2420
      3 N         142.1445  139.8789  164.8839 N.am    1  UNL1       -0.2760
      4 C         143.1145  138.8648  165.4136 C.3     1  UNL1        0.0983
      5 C         143.2378  138.6459  166.8924 C.3     1  UNL1        0.0476
      6 C         142.3912  139.4412  167.8415 C.ar    1  UNL1       -0.0229
      7 C         142.5146  139.2222  169.3203 C.ar    1  UNL1       -0.0045
      8 C         141.6680  140.0175  170.2694 C.ar    1  UNL1       -0.0003
      9 C         140.6980  141.0317  169.7397 C.ar    1  UNL1       -0.0003
     10 C         140.5746  141.2506  168.2609 C.ar    1  UNL1       -0.0030
     11 C         141.4212  140.4553  167.3118 C.ar    1  UNL1       -0.0082
     12 C         141.2979  140.6742  165.8330 C.3     1  UNL1        0.0975
     13 C         140.3279  141.6884  165.3033 C.3     1  UNL1        0.0224
     14 C         140.7750  143.1001  165.0636 C.3     1  UNL1        0.0020
     15 C         139.8050  144.1142  164.5339 C.3     1  UNL1        0.0001
     16 C         138.3879  143.7167  164.2439 C.3     1  UNL1        0.0000
     17 C         137.9409  142.3051  164.4835 C.3     1  UNL1        0.0001
     18 C         138.9109  141.2909  165.0132 C.3     1  UNL1        0.0020
     19 C         142.8677  139.3026  162.4560 C.3     1  UNL1        0.1552
     20 N         144.3231  139.6284  162.2959 N.3     1  UNL1       -0.2879
     21 H         144.6539  139.1074  161.4838 H       1  UNL1        0.1238
     22 C         144.7562  141.0516  162.1031 C.3     1  UNL1        0.0961
     23 C         144.7254  142.0080  163.2581 C.3     1  UNL1        0.1027
     24 O         145.4594  140.8275  163.8218 O.3     1  UNL1       -0.3854
     25 C         145.0212  142.4391  164.6641 C.3     1  UNL1        0.0283
     26 C         144.6697  143.7315  165.3396 C.3     1  UNL1        0.0024
     27 C         143.9357  144.9119  164.7759 C.3     1  UNL1        0.0001
     28 C         143.3718  145.0916  163.3975 C.3     1  UNL1        0.0001
     29 C         143.4027  144.1351  162.2424 C.3     1  UNL1        0.0024
     30 C         144.0051  142.7628  162.1804 C.3     1  UNL1        0.0283
     31 H         145.7004  141.0069  164.7441 H       1  UNL1        0.2103
@<TRIPOS>BOND
     1     1     2    2
     2     2    19    1
     3    19    20    1
     4    20    22    1
     5    22    23    1
     6    23    24    1
     7    23    25    1
     8    25    26    1
     9    26    27    1
    10    27    28    1
    11    28    29    1
    12    29    30    1
    13     2     3   am
    14     3     4    1
    15     4     5    1
    16     5     6    1
    17     6     7   ar
    18     7     8   ar
    19     8     9   ar
    20     9    10   ar
    21    10    11   ar
    22    11    12    1
    23    12    13    1
    24    13    14    1
    25    14    15    1
    26    15    16    1
    27    16    17    1
    28    17    18    1
    29    30    23    1
    30    12     3    1
    31    18    13    1
    32    11     6   ar
    33    20    21    1
    34    24    31    1
@<TRIPOS>MOLECULE
*****
 31 34 0 0 0
SMALL
GASTEIGER

@<TRIPOS>ATOM
      1 O         141.8403  140.6940  161.7779 O.2     1  UNL1       -0.2734
      2 C         142.6876  141.7889  162.3552 C.2     1  UNL1        0.2420
      3 N         142.8523  141.9051  163.8417 N.am    1  UNL1       -0.2760
      4 C         143.6996  142.9999  164.4191 C.3     1  UNL1        0.0983
      5 C         143.8644  143.1161  165.9054 C.3     1  UNL1        0.0476
      6 C         143.1818  142.1374  166.8145 C.ar    1  UNL1       -0.0229
      7 C         143.3465  142.2537  168.3009 C.ar    1  UNL1       -0.0045
      8 C         142.6639  141.2750  169.2098 C.ar    1  UNL1       -0.0003
      9 C         141.8166  140.1802  168.6325 C.ar    1  UNL1       -0.0003
     10 C         141.6519  140.0640  167.1461 C.ar    1  UNL1       -0.0030
     11 C         142.3344  141.0426  166.2371 C.ar    1  UNL1       -0.0082
     12 C         142.1697  140.9264  164.7507 C.3     1  UNL1        0.0975
     13 C         141.3224  139.8316  164.1733 C.3     1  UNL1        0.0224
     14 C         139.8668  140.0731  163.9031 C.3     1  UNL1        0.0020
     15 C         139.0194  138.9782  163.3257 C.3     1  UNL1        0.0001
     16 C         139.6277  137.6419  163.0186 C.3     1  UNL1        0.0000
     17 C         141.0833  137.4005  163.2888 C.3     1  UNL1        0.0001
     18 C         141.9306  138.4953  163.8662 C.3     1  UNL1        0.0020
     19 C         143.3702  142.7675  161.4463 C.3     1  UNL1        0.1552
     20 N         142.8462  144.1675  161.3226 N.3     1  UNL1       -0.2879
     21 H         143.2468  144.5575  160.4695 H       1  UNL1        0.1238
     22 C         141.3676  144.4120  161.2578 C.3     1  UNL1        0.0961
     23 C         140.5706  144.5284  162.5231 C.3     1  UNL1        0.1027
     24 O         141.7597  145.4010  162.7963 O.3     1  UNL1       -0.3854
     25 C         140.3026  145.0330  163.9101 C.3     1  UNL1        0.0283
     26 C         139.1342  144.7380  164.8032 C.3     1  UNL1        0.0024
     27 C         137.9452  143.8653  164.5300 C.3     1  UNL1        0.0001
     28 C         137.6308  143.0722  163.2962 C.3     1  UNL1        0.0001
     29 C         138.4280  142.9559  162.0308 C.3     1  UNL1        0.0024
     30 C         139.7363  143.6039  161.6868 C.3     1  UNL1        0.0283
     31 H         141.6830  145.7833  163.6845 H       1  UNL1        0.2103
@<TRIPOS>BOND
     1     1     2    2
     2     2    19    1
     3    19    20    1
     4    20    22    1
     5    22    23    1
     6    23    24    1
     7    23    25    1
     8    25    26    1
     9    26    27    1
    10    27    28    1
    11    28    29    1
    12    29    30    1
    13     2     3   am
    14     3     4    1
    15     4     5    1
    16     5     6    1
    17     6     7   ar
    18     7     8   ar
    19     8     9   ar
    20     9    10   ar
    21    10    11   ar
    22    11    12    1
    23    12    13    1
    24    13    14    1
    25    14    15    1
    26    15    16    1
    27    16    17    1
    28    17    18    1
    29    30    23    1
    30    12     3    1
    31    18    13    1
    32    11     6   ar
    33    20    21    1
    34    24    31    1
@<TRIPOS>MOLECULE
*****
 31 34 0 0 0
SMALL
GASTEIGER

@<TRIPOS>ATOM
      1 O         140.8492  143.1986  166.0230 O.2     1  UNL1       -0.2734
      2 C         140.1383  143.5811  164.7587 C.2     1  UNL1        0.2420
      3 N         139.5311  142.5201  163.8894 N.am    1  UNL1       -0.2760
      4 C         138.8201  142.9025  162.6251 C.3     1  UNL1        0.0983
      5 C         138.2129  141.8416  161.7558 C.3     1  UNL1        0.0476
      6 C         138.3166  140.3982  162.1508 C.ar    1  UNL1       -0.0229
      7 C         137.7094  139.3373  161.2815 C.ar    1  UNL1       -0.0045
      8 C         137.8131  137.8940  161.6764 C.ar    1  UNL1       -0.0003
      9 C         138.5240  137.5116  162.9407 C.ar    1  UNL1       -0.0003
     10 C         139.1312  138.5725  163.8100 C.ar    1  UNL1       -0.0030
     11 C         139.0275  140.0158  163.4150 C.ar    1  UNL1       -0.0082
     12 C         139.6348  141.0768  164.2844 C.3     1  UNL1        0.0975
     13 C         140.3457  140.6943  165.5486 C.3     1  UNL1        0.0224
     14 C         139.5762  140.5535  166.8286 C.3     1  UNL1        0.0020
     15 C         140.2871  140.1711  168.0928 C.3     1  UNL1        0.0001
     16 C         141.7675  139.9295  168.0771 C.3     1  UNL1        0.0000
     17 C         142.5369  140.0704  166.7973 C.3     1  UNL1        0.0001
     18 C         141.8260  140.4528  165.5330 C.3     1  UNL1        0.0020
     19 C         140.0346  145.0244  164.3638 C.3     1  UNL1        0.1552
     20 N         141.0878  145.6407  163.4915 N.3     1  UNL1       -0.2879
     21 H         140.9437  146.6500  163.5243 H       1  UNL1        0.1238
     22 C         142.5392  145.4008  163.7846 C.3     1  UNL1        0.0961
     23 C         143.2951  144.3532  163.0222 C.3     1  UNL1        0.1027
     24 O         142.5557  145.0845  161.9411 O.3     1  UNL1       -0.3854
     25 C         143.7220  143.6311  161.7787 C.3     1  UNL1        0.0283
     26 C         144.6572  142.4656  161.6484 C.3     1  UNL1        0.0024
     27 C         145.3965  141.7344  162.7295 C.3     1  UNL1        0.0001
     28 C         145.3832  141.9881  164.2079 C.3     1  UNL1        0.0001
     29 C         144.6273  143.0357  164.9703 C.3     1  UNL1        0.0024
     30 C         143.6980  144.0883  164.4426 C.3     1  UNL1        0.0283
     31 H         142.7662  144.6887  161.0809 H       1  UNL1        0.2103
@<TRIPOS>BOND
     1     1     2    2
     2     2    19    1
     3    19    20    1
     4    20    22    1
     5    22    23    1
     6    23    24    1
     7    23    25    1
     8    25    26    1
     9    26    27    1
    10    27    28    1
    11    28    29    1
    12    29    30    1
    13     2     3   am
    14     3     4    1
    15     4     5    1
    16     5     6    1
    17     6     7   ar
    18     7     8   ar
    19     8     9   ar
    20     9    10   ar
    21    10    11   ar
    22    11    12    1
    23    12    13    1
    24    13    14    1
    25    14    15    1
    26    15    16    1
    27    16    17    1
    28    17    18    1
    29    30    23    1
    30    12     3    1
    31    18    13    1
    32    11     6   ar
    33    20    21    1
    34    24    31    1
@<TRIPOS>MOLECULE
*****
 31 34 0 0 0
SMALL
GASTEIGER

@<TRIPOS>ATOM
      1 O         142.9830  143.3431  165.0769 O.2     1  UNL1       -0.2734
      2 C         142.8376  142.8411  163.6710 C.2     1  UNL1        0.2420
      3 N         142.0243  141.6114  163.3940 N.am    1  UNL1       -0.2760
      4 C         141.8789  141.1094  161.9880 C.3     1  UNL1        0.0983
      5 C         141.0657  139.8798  161.7110 C.3     1  UNL1        0.0476
      6 C         140.3978  139.1522  162.8401 C.ar    1  UNL1       -0.0229
      7 C         139.5845  137.9227  162.5631 C.ar    1  UNL1       -0.0045
      8 C         138.9167  137.1952  163.6921 C.ar    1  UNL1       -0.0003
      9 C         139.0621  137.6972  165.0981 C.ar    1  UNL1       -0.0003
     10 C         139.8753  138.9268  165.3751 C.ar    1  UNL1       -0.0030
     11 C         140.5432  139.6543  164.2461 C.ar    1  UNL1       -0.0082
     12 C         141.3565  140.8839  164.5230 C.3     1  UNL1        0.0975
     13 C         141.5019  141.3860  165.9290 C.3     1  UNL1        0.0224
     14 C         142.6606  140.9375  166.7694 C.3     1  UNL1        0.0020
     15 C         142.8060  141.4396  168.1754 C.3     1  UNL1        0.0001
     16 C         141.7927  142.3901  168.7410 C.3     1  UNL1        0.0000
     17 C         140.6340  142.8385  167.9005 C.3     1  UNL1        0.0001
     18 C         140.4886  142.3365  166.4945 C.3     1  UNL1        0.0020
     19 C         143.5055  143.5686  162.5420 C.3     1  UNL1        0.1552
     20 N         142.8933  144.8224  161.9914 N.3     1  UNL1       -0.2879
     21 H         143.3751  145.0253  161.1156 H       1  UNL1        0.1238
     22 C         141.4230  144.8733  161.6987 C.3     1  UNL1        0.0961
     23 C         140.4325  144.8411  162.8246 C.3     1  UNL1        0.1027
     24 O         141.4010  145.8997  163.2622 O.3     1  UNL1       -0.3854
     25 C         139.8730  145.2801  164.1454 C.3     1  UNL1        0.0283
     26 C         138.6477  144.7832  164.8537 C.3     1  UNL1        0.0024
     27 C         137.6792  143.7246  164.4161 C.3     1  UNL1        0.0001
     28 C         137.6969  142.9014  163.1622 C.3     1  UNL1        0.0001
     29 C         138.6874  142.9336  162.0362 C.3     1  UNL1        0.0024
     30 C         139.9049  143.7969  161.8859 C.3     1  UNL1        0.0283
     31 H         141.1252  146.2551  164.1215 H       1  UNL1        0.2103
@<TRIPOS>BOND
     1     1     2    2
     2     2    19    1
     3    19    20    1
     4    20    22    1
     5    22    23    1
     6    23    24    1
     7    23    25    1
     8    25    26    1
     9    26    27    1
    10    27    28    1
    11    28    29    1
    12    29    30    1
    13     2     3   am
    14     3     4    1
    15     4     5    1
    16     5     6    1
    17     6     7   ar
    18     7     8   ar
    19     8     9   ar
    20     9    10   ar
    21    10    11   ar
    22    11    12    1
    23    12    13    1
    24    13    14    1
    25    14    15    1
    26    15    16    1
    27    16    17    1
    28    17    18    1
    29    30    23    1
    30    12     3    1
    31    18    13    1
    32    11     6   ar
    33    20    21    1
    34    24    31    1
@<TRIPOS>MOLECULE
*****
 31 34 0 0 0
SMALL
GASTEIGER

@<TRIPOS>ATOM
      1 O         141.3601  144.3249  162.6260 O.2     1  UNL1       -0.2734
      2 C         142.6476  144.1761  163.3812 C.2     1  UNL1        0.2420
      3 N         142.6605  143.4855  164.7127 N.am    1  UNL1       -0.2760
      4 C         143.9479  143.3367  165.4679 C.3     1  UNL1        0.0983
      5 C         143.9609  142.6461  166.7994 C.3     1  UNL1        0.0476
      6 C         142.6864  142.1043  167.3757 C.ar    1  UNL1       -0.0229
      7 C         142.6994  141.4137  168.7072 C.ar    1  UNL1       -0.0045
      8 C         141.4249  140.8718  169.2835 C.ar    1  UNL1       -0.0003
      9 C         140.1375  141.0206  168.5282 C.ar    1  UNL1       -0.0003
     10 C         140.1245  141.7112  167.1968 C.ar    1  UNL1       -0.0030
     11 C         141.3990  142.2530  166.6205 C.ar    1  UNL1       -0.0082
     12 C         141.3860  142.9437  165.2890 C.3     1  UNL1        0.0975
     13 C         140.0986  143.0924  164.5337 C.3     1  UNL1        0.0224
     14 C         139.2379  144.3018  164.7496 C.3     1  UNL1        0.0020
     15 C         137.9504  144.4506  163.9944 C.3     1  UNL1        0.0001
     16 C         137.5237  143.3899  163.0233 C.3     1  UNL1        0.0000
     17 C         138.3844  142.1806  162.8075 C.3     1  UNL1        0.0001
     18 C         139.6718  142.0318  163.5627 C.3     1  UNL1        0.0020
     19 C         143.9220  144.7180  162.8049 C.3     1  UNL1        0.1552
     20 N         144.8030  143.8354  161.9714 N.3     1  UNL1       -0.2879
     21 H         145.7078  143.7949  162.4407 H       1  UNL1        0.1238
     22 C         144.3964  142.4188  161.6919 C.3     1  UNL1        0.0961
     23 C         144.6091  141.3585  162.7313 C.3     1  UNL1        0.1027
     24 O         145.9374  142.0540  162.6873 O.3     1  UNL1       -0.3854
     25 C         145.4129  140.6076  163.7512 C.3     1  UNL1        0.0283
     26 C         144.9923  139.4478  164.6044 C.3     1  UNL1        0.0024
     27 C         143.6640  138.7524  164.6483 C.3     1  UNL1        0.0001
     28 C         142.4282  139.0450  163.8500 C.3     1  UNL1        0.0001
     29 C         142.2155  140.1053  162.8105 C.3     1  UNL1        0.0024
     30 C         143.1861  141.1349  162.3127 C.3     1  UNL1        0.0283
     31 H         146.5416  141.6375  163.3218 H       1  UNL1        0.2103
@<TRIPOS>BOND
     1     1     2    2
     2     2    19    1
     3    19    20    1
     4    20    22    1
     5    22    23    1
     6    23    24    1
     7    23    25    1
     8    25    26    1
     9    26    27    1
    10    27    28    1
    11    28    29    1
    12    29    30    1
    13     2     3   am
    14     3     4    1
    15     4     5    1
    16     5     6    1
    17     6     7   ar
    18     7     8   ar
    19     8     9   ar
    20     9    10   ar
    21    10    11   ar
    22    11    12    1
    23    12    13    1
    24    13    14    1
    25    14    15    1
    26    15    16    1
    27    16    17    1
    28    17    18    1
    29    30    23    1
    30    12     3    1
    31    18    13    1
    32    11     6   ar
    33    20    21    1
    34    24    31    1
@<TRIPOS>MOLECULE
*****
 31 34 0 0 0
SMALL
GASTEIGER

@<TRIPOS>ATOM
      1 O         142.2640  140.3145  163.3457 O.2     1  UNL1       -0.2734
      2 C         143.0232  141.1798  164.3074 C.2     1  UNL1        0.2420
      3 N         142.5396  141.3354  165.7189 N.am    1  UNL1       -0.2760
      4 C         143.2988  142.2007  166.6806 C.3     1  UNL1        0.0983
      5 C         142.8153  142.3564  168.0920 C.3     1  UNL1        0.0476
      6 C         141.5726  141.6467  168.5416 C.ar    1  UNL1       -0.0229
      7 C         141.0891  141.8024  169.9530 C.ar    1  UNL1       -0.0045
      8 C         139.8464  141.0928  170.4026 C.ar    1  UNL1       -0.0003
      9 C         139.0872  140.2275  169.4408 C.ar    1  UNL1       -0.0003
     10 C         139.5707  140.0719  168.0295 C.ar    1  UNL1       -0.0030
     11 C         140.8134  140.7815  167.5799 C.ar    1  UNL1       -0.0082
     12 C         141.2969  140.6258  166.1685 C.3     1  UNL1        0.0975
     13 C         140.5378  139.7606  165.2067 C.3     1  UNL1        0.0224
     14 C         139.4181  140.3435  164.3963 C.3     1  UNL1        0.0020
     15 C         138.6589  139.4782  163.4346 C.3     1  UNL1        0.0001
     16 C         139.0194  138.0300  163.2832 C.3     1  UNL1        0.0000
     17 C         140.1390  137.4472  164.0936 C.3     1  UNL1        0.0001
     18 C         140.8982  138.3124  165.0553 C.3     1  UNL1        0.0020
     19 C         144.2658  141.8894  163.8578 C.3     1  UNL1        0.1552
     20 N         144.1606  143.1885  163.1155 N.3     1  UNL1       -0.2879
     21 H         143.8281  142.9655  162.1774 H       1  UNL1        0.1238
     22 C         143.2778  144.2823  163.6393 C.3     1  UNL1        0.0961
     23 C         141.9909  144.6068  162.9404 C.3     1  UNL1        0.1027
     24 O         143.0194  144.8500  161.8758 O.3     1  UNL1       -0.3854
     25 C         141.1616  145.0395  161.7677 C.3     1  UNL1        0.0283
     26 C         139.6718  145.1915  161.6809 C.3     1  UNL1        0.0024
     27 C         138.6435  144.9484  162.7455 C.3     1  UNL1        0.0001
     28 C         138.8507  144.4932  164.1597 C.3     1  UNL1        0.0001
     29 C         140.1377  144.1686  164.8586 C.3     1  UNL1        0.0024
     30 C         141.5352  144.2192  164.3159 C.3     1  UNL1        0.0283
     31 H         142.5793  145.1391  161.0612 H       1  UNL1        0.2103
@<TRIPOS>BOND
     1     1     2    2
     2     2    19    1
     3    19    20    1
     4    20    22    1
     5    22    23    1
     6    23    24    1
     7    23    25    1
     8    25    26    1
     9    26    27    1
    10    27    28    1
    11    28    29    1
    12    29    30    1
    13     2     3   am
    14     3     4    1
    15     4     5    1
    16     5     6    1
    17     6     7   ar
    18     7     8   ar
    19     8     9   ar
    20     9    10   ar
    21    10    11   ar
    22    11    12    1
    23    12    13    1
    24    13    14    1
    25    14    15    1
    26    15    16    1
    27    16    17    1
    28    17    18    1
    29    30    23    1
    30    12     3    1
    31    18    13    1
    32    11     6   ar
    33    20    21    1
    34    24    31    1
