@<TRIPOS>MOLECULE
*****
 34 39 0 0 0
SMALL
GASTEIGER

@<TRIPOS>ATOM
      1 C         143.7020  142.0196  162.3013 C.ar    1  UNL1        0.1074
      2 C         145.1764  141.9262  162.5605 C.ar    1  UNL1        0.0588
      3 S         145.3777  141.1104  163.8031 S.2     1  UNL1       -0.0508
      4 C         144.0277  140.6997  164.3117 C.ar    1  UNL1        0.1646
      5 N         142.9920  141.2616  163.3835 N.ar    1  UNL1       -0.2224
      6 C         141.1361  144.2416  160.2447 C.ar    1  UNL1        0.2416
      7 N         141.7863  143.5173  161.3860 N.ar    1  UNL1       -0.2089
      8 C         143.0516  142.7439  161.1600 C.ar    1  UNL1        0.1026
      9 C         143.6665  142.6948  159.7927 C.ar    1  UNL1        0.0224
     10 C         143.0162  143.4192  158.6514 C.ar    1  UNL1        0.0239
     11 C         141.7509  144.1925  158.8775 C.ar    1  UNL1        0.1189
     12 N         141.1006  144.9168  157.7362 N.ar    1  UNL1       -0.2826
     13 C         141.6840  146.0723  156.9782 C.ar    1  UNL1        0.1826
     14 N         140.6967  146.4824  155.9261 N.ar    1  UNL1       -0.2280
     15 C         139.5030  145.5803  156.0338 C.ar    1  UNL1        0.0786
     16 C         138.2753  145.6361  155.1738 C.3     1  UNL1        0.0538
     17 C         139.7527  144.6127  157.1526 C.ar    1  UNL1        0.0963
     18 C         139.8191  146.0753  161.5305 C.3     1  UNL1        0.2543
     19 O         139.8708  145.0149  160.4707 O.3     1  UNL1       -0.4551
     20 N         143.7602  139.8723  165.5341 N.pl3   1  UNL1       -0.2786
     21 H         144.5048  139.4278  166.0002 H       1  UNL1        0.1555
     22 C         142.3584  139.7221  166.0461 C.ar    1  UNL1        0.1274
     23 C         141.2445  138.9854  165.3631 C.ar    1  UNL1        0.0244
     24 C         140.0219  139.0902  166.2259 C.ar    1  UNL1        0.0773
     25 N         140.3803  139.8917  167.4421 N.ar    1  UNL1       -0.1730
     26 N         141.8243  140.2822  167.3310 N.ar    1  UNL1       -0.2402
     27 C         138.7404  138.4424  165.7925 C.3     1  UNL1        0.0474
     28 C         138.6813  137.6897  164.4965 C.3     1  UNL1        0.0067
     29 C         139.9039  137.5848  163.6337 C.3     1  UNL1        0.0052
     30 C         141.1854  138.2327  164.0670 C.3     1  UNL1        0.0305
     31 C         142.5983  141.0909  168.3295 C.3     1  UNL1        0.1065
     32 C         143.0601  140.8745  169.7402 C.3     1  UNL1        0.0245
     33 C         143.6929  142.2345  169.7416 C.3     1  UNL1        0.0040
     34 C         143.2312  142.4509  168.3309 C.3     1  UNL1        0.0245
@<TRIPOS>BOND
     1    18    19    1
     2    19     6    1
     3     6     7   ar
     4     7     8   ar
     5     8     1    1
     6     1     2   ar
     7     2     3   ar
     8     3     4   ar
     9     4    20    1
    10    20    22    1
    11    22    23   ar
    12    23    24   ar
    13    24    25   ar
    14    25    26   ar
    15    26    31    1
    16    31    32    1
    17    32    33    1
    18    33    34    1
    19    24    27    1
    20    27    28    1
    21    28    29    1
    22    29    30    1
    23     4     5   ar
    24     8     9   ar
    25     9    10   ar
    26    10    11   ar
    27    11    12    1
    28    12    13   ar
    29    13    14   ar
    30    14    15   ar
    31    15    16    1
    32    15    17   ar
    33    11     6   ar
    34    17    12   ar
    35     5     1   ar
    36    26    22   ar
    37    34    31    1
    38    30    23    1
    39    20    21    1
@<TRIPOS>MOLECULE
*****
 34 39 0 0 0
SMALL
GASTEIGER

@<TRIPOS>ATOM
      1 C         142.4543  138.1367  159.8391 C.ar    1  UNL1        0.1074
      2 C         141.6035  138.9296  158.8918 C.ar    1  UNL1        0.0588
      3 S         141.8219  138.3894  157.5096 S.2     1  UNL1       -0.0508
      4 C         142.8078  137.2627  157.6027 C.ar    1  UNL1        0.1646
      5 N         143.1986  137.1065  159.0425 N.ar    1  UNL1       -0.2224
      6 C         143.8500  139.1885  163.4023 C.ar    1  UNL1        0.2416
      7 N         143.7595  138.9866  161.9187 N.ar    1  UNL1       -0.2089
      8 C         142.5449  138.3386  161.3227 C.ar    1  UNL1        0.1026
      9 C         141.4210  137.8926  162.2104 C.ar    1  UNL1        0.0224
     10 C         141.5117  138.0945  163.6940 C.ar    1  UNL1        0.0239
     11 C         142.7262  138.7424  164.2899 C.ar    1  UNL1        0.1189
     12 N         142.8168  138.9443  165.7735 N.ar    1  UNL1       -0.2826
     13 C         143.5068  138.0348  166.7466 C.ar    1  UNL1        0.1826
     14 N         143.3498  138.6195  168.1189 N.ar    1  UNL1       -0.2280
     15 C         142.5628  139.8905  167.9941 C.ar    1  UNL1        0.0786
     16 C         142.1736  140.8008  169.1209 C.3     1  UNL1        0.0538
     17 C         142.2334  140.0911  166.5444 C.ar    1  UNL1        0.0963
     18 C         145.4334  141.2378  163.6106 C.3     1  UNL1        0.2543
     19 O         145.0645  139.8364  163.9982 O.3     1  UNL1       -0.4551
     20 N         143.3140  136.4370  156.4572 N.pl3   1  UNL1       -0.2786
     21 H         144.0488  136.7733  155.8949 H       1  UNL1        0.1555
     22 C         142.7004  135.0991  156.1683 C.ar    1  UNL1        0.1274
     23 C         143.2370  133.7695  156.6090 C.ar    1  UNL1        0.0244
     24 C         142.3108  132.7045  156.1011 C.ar    1  UNL1        0.0773
     25 N         141.2019  133.3759  155.3465 N.ar    1  UNL1       -0.1730
     26 N         141.4426  134.8559  155.3880 N.ar    1  UNL1       -0.2402
     27 C         142.5969  131.2609  156.3913 C.3     1  UNL1        0.0474
     28 C         143.8092  130.8824  157.1895 C.3     1  UNL1        0.0067
     29 C         144.7354  131.9474  157.6974 C.3     1  UNL1        0.0052
     30 C         144.4493  133.3909  157.4071 C.3     1  UNL1        0.0305
     31 C         140.5775  135.9079  154.7596 C.3     1  UNL1        0.1065
     32 C         139.3698  136.6855  155.1921 C.3     1  UNL1        0.0245
     33 C         139.3541  137.3956  153.8710 C.3     1  UNL1        0.0040
     34 C         140.5617  136.6181  153.4385 C.3     1  UNL1        0.0245
@<TRIPOS>BOND
     1    18    19    1
     2    19     6    1
     3     6     7   ar
     4     7     8   ar
     5     8     1    1
     6     1     2   ar
     7     2     3   ar
     8     3     4   ar
     9     4    20    1
    10    20    22    1
    11    22    23   ar
    12    23    24   ar
    13    24    25   ar
    14    25    26   ar
    15    26    31    1
    16    31    32    1
    17    32    33    1
    18    33    34    1
    19    24    27    1
    20    27    28    1
    21    28    29    1
    22    29    30    1
    23     4     5   ar
    24     8     9   ar
    25     9    10   ar
    26    10    11   ar
    27    11    12    1
    28    12    13   ar
    29    13    14   ar
    30    14    15   ar
    31    15    16    1
    32    15    17   ar
    33    11     6   ar
    34    17    12   ar
    35     5     1   ar
    36    26    22   ar
    37    34    31    1
    38    30    23    1
    39    20    21    1
@<TRIPOS>MOLECULE
*****
 34 39 0 0 0
SMALL
GASTEIGER

@<TRIPOS>ATOM
      1 C         142.6784  143.2432  163.2197 C.ar    1  UNL1        0.1074
      2 C         143.7963  143.9469  163.9303 C.ar    1  UNL1        0.0588
      3 S         144.0825  143.1992  165.1988 S.2     1  UNL1       -0.0508
      4 C         143.1415  142.0334  165.2720 C.ar    1  UNL1        0.1646
      5 N         142.2737  142.0607  164.0489 N.ar    1  UNL1       -0.2224
      6 C         142.2549  143.9199  159.3321 C.ar    1  UNL1        0.2416
      7 N         142.8616  143.5124  160.6420 N.ar    1  UNL1       -0.2089
      8 C         142.0717  143.6507  161.9098 C.ar    1  UNL1        0.1026
      9 C         140.6751  144.1963  161.8675 C.ar    1  UNL1        0.0224
     10 C         140.0684  144.6038  160.5575 C.ar    1  UNL1        0.0239
     11 C         140.8583  144.4655  159.2898 C.ar    1  UNL1        0.1189
     12 N         140.2517  144.8730  157.9799 N.ar    1  UNL1       -0.2826
     13 C         139.4605  143.9891  157.0617 C.ar    1  UNL1        0.1826
     14 N         139.0495  144.8056  155.8726 N.ar    1  UNL1       -0.2280
     15 C         139.5866  146.1942  156.0557 C.ar    1  UNL1        0.0786
     16 C         139.4114  147.3400  155.1036 C.3     1  UNL1        0.0538
     17 C         140.3296  146.2358  157.3582 C.ar    1  UNL1        0.0963
     18 C         144.1895  142.8148  157.9958 C.3     1  UNL1        0.2543
     19 O         143.0448  143.7817  158.0645 O.3     1  UNL1       -0.4551
     20 N         143.0791  141.0185  166.3749 N.pl3   1  UNL1       -0.2786
     21 H         143.9010  140.5680  166.6764 H       1  UNL1        0.1555
     22 C         141.7646  140.6900  167.0184 C.ar    1  UNL1        0.1274
     23 C         140.6911  139.8192  166.4361 C.ar    1  UNL1        0.0244
     24 C         139.5558  139.7656  167.4150 C.ar    1  UNL1        0.0773
     25 N         139.9277  140.6034  168.6023 N.ar    1  UNL1       -0.1730
     26 N         141.2928  141.1748  168.3573 N.ar    1  UNL1       -0.2402
     27 C         138.3301  138.9610  167.0987 C.3     1  UNL1        0.0474
     28 C         138.2397  138.2098  165.8036 C.3     1  UNL1        0.0067
     29 C         139.3749  138.2633  164.8246 C.3     1  UNL1        0.0052
     30 C         140.6006  139.0680  165.1409 C.3     1  UNL1        0.0305
     31 C         142.0527  142.0730  169.2877 C.3     1  UNL1        0.1065
     32 C         141.7057  143.2634  170.1319 C.3     1  UNL1        0.0245
     33 C         143.1274  143.3434  170.6034 C.3     1  UNL1        0.0040
     34 C         143.4745  142.1531  169.7592 C.3     1  UNL1        0.0245
@<TRIPOS>BOND
     1    18    19    1
     2    19     6    1
     3     6     7   ar
     4     7     8   ar
     5     8     1    1
     6     1     2   ar
     7     2     3   ar
     8     3     4   ar
     9     4    20    1
    10    20    22    1
    11    22    23   ar
    12    23    24   ar
    13    24    25   ar
    14    25    26   ar
    15    26    31    1
    16    31    32    1
    17    32    33    1
    18    33    34    1
    19    24    27    1
    20    27    28    1
    21    28    29    1
    22    29    30    1
    23     4     5   ar
    24     8     9   ar
    25     9    10   ar
    26    10    11   ar
    27    11    12    1
    28    12    13   ar
    29    13    14   ar
    30    14    15   ar
    31    15    16    1
    32    15    17   ar
    33    11     6   ar
    34    17    12   ar
    35     5     1   ar
    36    26    22   ar
    37    34    31    1
    38    30    23    1
    39    20    21    1
@<TRIPOS>MOLECULE
*****
 34 39 0 0 0
SMALL
GASTEIGER

@<TRIPOS>ATOM
      1 C         140.2915  138.9767  162.5332 C.ar    1  UNL1        0.1074
      2 C         140.2995  137.5044  162.8199 C.ar    1  UNL1        0.0588
      3 S         141.0210  137.2888  164.1172 S.2     1  UNL1       -0.0508
      4 C         141.4588  138.6278  164.6322 C.ar    1  UNL1        0.1646
      5 N         141.0080  139.6710  163.6532 N.ar    1  UNL1       -0.2224
      6 C         139.0360  139.5902  158.8187 C.ar    1  UNL1        0.2416
      7 N         139.6524  138.9283  160.0154 N.ar    1  UNL1       -0.2089
      8 C         139.6752  139.6385  161.3365 C.ar    1  UNL1        0.1026
      9 C         139.0817  141.0105  161.4608 C.ar    1  UNL1        0.0224
     10 C         138.4654  141.6723  160.2640 C.ar    1  UNL1        0.0239
     11 C         138.4426  140.9621  158.9430 C.ar    1  UNL1        0.1189
     12 N         137.8263  141.6239  157.7462 N.ar    1  UNL1       -0.2826
     13 C         136.6903  141.0851  156.9281 C.ar    1  UNL1        0.1826
     14 N         136.3997  142.0688  155.8338 N.ar    1  UNL1       -0.2280
     15 C         137.3560  143.2158  155.9755 C.ar    1  UNL1        0.0786
     16 C         137.4195  144.4253  155.0907 C.3     1  UNL1        0.0538
     17 C         138.2377  142.9408  157.1575 C.ar    1  UNL1        0.0963
     18 C         140.0473  137.8385  157.1881 C.3     1  UNL1        0.2543
     19 O         139.0132  138.8800  157.4977 O.3     1  UNL1       -0.4551
     20 N         142.2148  138.8795  165.9032 N.pl3   1  UNL1       -0.2786
     21 H         142.7153  138.1477  166.3314 H       1  UNL1        0.1555
     22 C         142.2083  140.2460  166.5217 C.ar    1  UNL1        0.1274
     23 C         141.3265  140.7004  167.6468 C.ar    1  UNL1        0.0244
     24 C         141.6556  142.1333  167.9441 C.ar    1  UNL1        0.0773
     25 N         142.7409  142.5645  167.0027 N.ar    1  UNL1       -0.1730
     26 N         143.0825  141.3981  166.1235 N.ar    1  UNL1       -0.2402
     27 C         140.9246  142.8603  169.0336 C.3     1  UNL1        0.0474
     28 C         139.8645  142.1544  169.8258 C.3     1  UNL1        0.0067
     29 C         139.5353  140.7214  169.5285 C.3     1  UNL1        0.0052
     30 C         140.2663  139.9944  168.4390 C.3     1  UNL1        0.0305
     31 C         144.1167  141.3860  165.0371 C.3     1  UNL1        0.1065
     32 C         144.8104  140.3176  164.2450 C.3     1  UNL1        0.0245
     33 C         145.5792  141.3688  163.5006 C.3     1  UNL1        0.0040
     34 C         144.8855  142.4372  164.2927 C.3     1  UNL1        0.0245
@<TRIPOS>BOND
     1    18    19    1
     2    19     6    1
     3     6     7   ar
     4     7     8   ar
     5     8     1    1
     6     1     2   ar
     7     2     3   ar
     8     3     4   ar
     9     4    20    1
    10    20    22    1
    11    22    23   ar
    12    23    24   ar
    13    24    25   ar
    14    25    26   ar
    15    26    31    1
    16    31    32    1
    17    32    33    1
    18    33    34    1
    19    24    27    1
    20    27    28    1
    21    28    29    1
    22    29    30    1
    23     4     5   ar
    24     8     9   ar
    25     9    10   ar
    26    10    11   ar
    27    11    12    1
    28    12    13   ar
    29    13    14   ar
    30    14    15   ar
    31    15    16    1
    32    15    17   ar
    33    11     6   ar
    34    17    12   ar
    35     5     1   ar
    36    26    22   ar
    37    34    31    1
    38    30    23    1
    39    20    21    1
@<TRIPOS>MOLECULE
*****
 34 39 0 0 0
SMALL
GASTEIGER

@<TRIPOS>ATOM
      1 C         143.3438  142.3998  162.5807 C.ar    1  UNL1        0.1074
      2 C         144.7581  142.5540  163.0558 C.ar    1  UNL1        0.0588
      3 S         144.9203  141.7350  164.3020 S.2     1  UNL1       -0.0508
      4 C         143.6063  141.0746  164.5969 C.ar    1  UNL1        0.1646
      5 N         142.6319  141.4855  163.5331 N.ar    1  UNL1       -0.2224
      6 C         141.0296  144.6804  160.3018 C.ar    1  UNL1        0.2416
      7 N         141.6270  144.0339  161.5163 N.ar    1  UNL1       -0.2089
      8 C         142.7463  143.0464  161.3662 C.ar    1  UNL1        0.1026
      9 C         143.2679  142.7056  160.0018 C.ar    1  UNL1        0.0224
     10 C         142.6703  143.3523  158.7873 C.ar    1  UNL1        0.0239
     11 C         141.5511  144.3397  158.9374 C.ar    1  UNL1        0.1189
     12 N         140.9536  144.9863  157.7230 N.ar    1  UNL1       -0.2826
     13 C         141.5956  146.0527  156.8858 C.ar    1  UNL1        0.1826
     14 N         140.6480  146.4055  155.7780 N.ar    1  UNL1       -0.2280
     15 C         139.4202  145.5572  155.9303 C.ar    1  UNL1        0.0786
     16 C         138.2153  145.5817  155.0373 C.3     1  UNL1        0.0538
     17 C         139.6092  144.6800  157.1324 C.ar    1  UNL1        0.0963
     18 C         139.6417  146.3000  161.7853 C.3     1  UNL1        0.2543
     19 O         139.9104  145.6678  160.4519 O.3     1  UNL1       -0.4551
     20 N         143.3172  140.1632  165.7528 N.pl3   1  UNL1       -0.2786
     21 H         143.9406  139.4335  165.9722 H       1  UNL1        0.1555
     22 C         142.0784  140.3637  166.5744 C.ar    1  UNL1        0.1274
     23 C         141.9574  141.2361  167.7887 C.ar    1  UNL1        0.0244
     24 C         140.5473  141.1386  168.2908 C.ar    1  UNL1        0.0773
     25 N         139.7968  140.2061  167.3868 N.ar    1  UNL1       -0.1730
     26 N         140.7431  139.7272  166.3260 N.ar    1  UNL1       -0.2402
     27 C         140.1288  141.9116  169.5062 C.3     1  UNL1        0.0474
     28 C         141.1204  142.7821  170.2196 C.3     1  UNL1        0.0067
     29 C         142.5305  142.8795  169.7175 C.3     1  UNL1        0.0052
     30 C         142.9490  142.1065  168.5021 C.3     1  UNL1        0.0305
     31 C         140.4122  138.7783  165.2124 C.3     1  UNL1        0.1065
     32 C         141.1045  137.6120  164.5717 C.3     1  UNL1        0.0245
     33 C         139.9442  137.4364  163.6376 C.3     1  UNL1        0.0040
     34 C         139.2518  138.6026  164.2782 C.3     1  UNL1        0.0245
@<TRIPOS>BOND
     1    18    19    1
     2    19     6    1
     3     6     7   ar
     4     7     8   ar
     5     8     1    1
     6     1     2   ar
     7     2     3   ar
     8     3     4   ar
     9     4    20    1
    10    20    22    1
    11    22    23   ar
    12    23    24   ar
    13    24    25   ar
    14    25    26   ar
    15    26    31    1
    16    31    32    1
    17    32    33    1
    18    33    34    1
    19    24    27    1
    20    27    28    1
    21    28    29    1
    22    29    30    1
    23     4     5   ar
    24     8     9   ar
    25     9    10   ar
    26    10    11   ar
    27    11    12    1
    28    12    13   ar
    29    13    14   ar
    30    14    15   ar
    31    15    16    1
    32    15    17   ar
    33    11     6   ar
    34    17    12   ar
    35     5     1   ar
    36    26    22   ar
    37    34    31    1
    38    30    23    1
    39    20    21    1
@<TRIPOS>MOLECULE
*****
 34 39 0 0 0
SMALL
GASTEIGER

@<TRIPOS>ATOM
      1 C         142.8904  139.5759  159.7684 C.ar    1  UNL1        0.1074
      2 C         141.4528  139.1644  159.6511 C.ar    1  UNL1        0.0588
      3 S         141.0426  138.5377  160.9507 S.2     1  UNL1       -0.0508
      4 C         142.2267  138.5618  161.8711 C.ar    1  UNL1        0.1646
      5 N         143.3688  139.2034  161.1404 N.ar    1  UNL1       -0.2224
      6 C         144.8443  140.1745  156.3663 C.ar    1  UNL1        0.2416
      7 N         144.0283  139.5075  157.4337 N.ar    1  UNL1       -0.2089
      8 C         143.7065  140.2427  158.7010 C.ar    1  UNL1        0.1026
      9 C         144.2008  141.6448  158.9009 C.ar    1  UNL1        0.0224
     10 C         145.0169  142.3116  157.8334 C.ar    1  UNL1        0.0239
     11 C         145.3386  141.5764  156.5662 C.ar    1  UNL1        0.1189
     12 N         146.1547  142.2433  155.4988 N.ar    1  UNL1       -0.2826
     13 C         145.6486  143.2317  154.4902 C.ar    1  UNL1        0.1826
     14 N         146.8011  143.6381  153.6207 N.ar    1  UNL1       -0.2280
     15 C         148.0198  142.9009  154.0917 C.ar    1  UNL1        0.0786
     16 C         149.3961  143.0072  153.5050 C.3     1  UNL1        0.0538
     17 C         147.6201  142.0389  155.2525 C.ar    1  UNL1        0.0963
     18 C         144.7210  138.0176  154.9230 C.3     1  UNL1        0.2543
     19 O         145.1661  139.4393  155.0991 O.3     1  UNL1       -0.4551
     20 N         142.2626  138.0364  163.2757 N.pl3   1  UNL1       -0.2786
     21 H         142.6003  137.1288  163.4534 H       1  UNL1        0.1555
     22 C         141.7839  138.8938  164.4096 C.ar    1  UNL1        0.1274
     23 C         140.5041  138.7147  165.1711 C.ar    1  UNL1        0.0244
     24 C         140.4302  139.7911  166.2132 C.ar    1  UNL1        0.0773
     25 N         141.6644  140.6354  166.0957 N.ar    1  UNL1       -0.1730
     26 N         142.5011  140.0809  164.9810 N.ar    1  UNL1       -0.2402
     27 C         139.2487  139.8633  167.1345 C.3     1  UNL1        0.0474
     28 C         138.1410  138.8591  167.0136 C.3     1  UNL1        0.0067
     29 C         138.2149  137.7827  165.9715 C.3     1  UNL1        0.0052
     30 C         139.3964  137.7105  165.0503 C.3     1  UNL1        0.0305
     31 C         143.8228  140.6190  164.5189 C.3     1  UNL1        0.1065
     32 C         144.3518  141.9794  164.1732 C.3     1  UNL1        0.0245
     33 C         145.6919  141.3800  163.8654 C.3     1  UNL1        0.0040
     34 C         145.1630  140.0196  164.2110 C.3     1  UNL1        0.0245
@<TRIPOS>BOND
     1    18    19    1
     2    19     6    1
     3     6     7   ar
     4     7     8   ar
     5     8     1    1
     6     1     2   ar
     7     2     3   ar
     8     3     4   ar
     9     4    20    1
    10    20    22    1
    11    22    23   ar
    12    23    24   ar
    13    24    25   ar
    14    25    26   ar
    15    26    31    1
    16    31    32    1
    17    32    33    1
    18    33    34    1
    19    24    27    1
    20    27    28    1
    21    28    29    1
    22    29    30    1
    23     4     5   ar
    24     8     9   ar
    25     9    10   ar
    26    10    11   ar
    27    11    12    1
    28    12    13   ar
    29    13    14   ar
    30    14    15   ar
    31    15    16    1
    32    15    17   ar
    33    11     6   ar
    34    17    12   ar
    35     5     1   ar
    36    26    22   ar
    37    34    31    1
    38    30    23    1
    39    20    21    1
@<TRIPOS>MOLECULE
*****
 34 39 0 0 0
SMALL
GASTEIGER

@<TRIPOS>ATOM
      1 C         142.8369  143.1269  162.9378 C.ar    1  UNL1        0.1074
      2 C         144.0304  143.7624  163.5872 C.ar    1  UNL1        0.0588
      3 S         144.3439  142.9918  164.8354 S.2     1  UNL1       -0.0508
      4 C         143.3442  141.8803  164.9574 C.ar    1  UNL1        0.1646
      5 N         142.4128  141.9638  163.7845 N.ar    1  UNL1       -0.2224
      6 C         142.2970  144.0013  159.1044 C.ar    1  UNL1        0.2416
      7 N         142.9516  143.5523  160.3772 N.ar    1  UNL1       -0.2089
      8 C         142.1825  143.5759  161.6649 C.ar    1  UNL1        0.1026
      9 C         140.7589  144.0485  161.6797 C.ar    1  UNL1        0.0224
     10 C         140.1045  144.4975  160.4068 C.ar    1  UNL1        0.0239
     11 C         140.8735  144.4739  159.1192 C.ar    1  UNL1        0.1189
     12 N         140.2191  144.9229  157.8464 N.ar    1  UNL1       -0.2826
     13 C         139.6048  144.0309  156.8085 C.ar    1  UNL1        0.1826
     14 N         139.0701  144.8993  155.7087 N.ar    1  UNL1       -0.2280
     15 C         139.3537  146.3282  156.0668 C.ar    1  UNL1        0.0786
     16 C         138.9910  147.5311  155.2475 C.3     1  UNL1        0.0538
     17 C         140.0639  146.3426  157.3880 C.ar    1  UNL1        0.0963
     18 C         143.4394  142.6671  157.1901 C.3     1  UNL1        0.2543
     19 O         143.0661  143.9778  157.8168 O.3     1  UNL1       -0.4551
     20 N         143.2860  140.8636  166.0588 N.pl3   1  UNL1       -0.2786
     21 H         144.0787  140.3184  166.2679 H       1  UNL1        0.1555
     22 C         142.0201  140.6776  166.8417 C.ar    1  UNL1        0.1274
     23 C         141.5996  141.4751  168.0404 C.ar    1  UNL1        0.0244
     24 C         140.2720  140.9518  168.5028 C.ar    1  UNL1        0.0773
     25 N         139.8722  139.8308  167.5899 N.ar    1  UNL1       -0.1730
     26 N         140.9525  139.6613  166.5632 N.ar    1  UNL1       -0.2402
     27 C         139.5989  141.5637  169.6955 C.3     1  UNL1        0.0474
     28 C         140.2532  142.6988  170.4257 C.3     1  UNL1        0.0067
     29 C         141.5807  143.2221  169.9633 C.3     1  UNL1        0.0052
     30 C         142.2539  142.6103  168.7706 C.3     1  UNL1        0.0305
     31 C         140.9634  138.6527  165.4530 C.3     1  UNL1        0.1065
     32 C         139.9112  137.9051  164.6887 C.3     1  UNL1        0.0245
     33 C         140.9788  137.2263  163.8830 C.3     1  UNL1        0.0040
     34 C         142.0311  137.9738  164.6471 C.3     1  UNL1        0.0245
@<TRIPOS>BOND
     1    18    19    1
     2    19     6    1
     3     6     7   ar
     4     7     8   ar
     5     8     1    1
     6     1     2   ar
     7     2     3   ar
     8     3     4   ar
     9     4    20    1
    10    20    22    1
    11    22    23   ar
    12    23    24   ar
    13    24    25   ar
    14    25    26   ar
    15    26    31    1
    16    31    32    1
    17    32    33    1
    18    33    34    1
    19    24    27    1
    20    27    28    1
    21    28    29    1
    22    29    30    1
    23     4     5   ar
    24     8     9   ar
    25     9    10   ar
    26    10    11   ar
    27    11    12    1
    28    12    13   ar
    29    13    14   ar
    30    14    15   ar
    31    15    16    1
    32    15    17   ar
    33    11     6   ar
    34    17    12   ar
    35     5     1   ar
    36    26    22   ar
    37    34    31    1
    38    30    23    1
    39    20    21    1
@<TRIPOS>MOLECULE
*****
 34 39 0 0 0
SMALL
GASTEIGER

@<TRIPOS>ATOM
      1 C         139.7676  140.3837  159.5421 C.ar    1  UNL1        0.1074
      2 C         139.0234  141.6387  159.1941 C.ar    1  UNL1        0.0588
      3 S         138.7532  142.3854  160.4667 S.2     1  UNL1       -0.0508
      4 C         139.3305  141.5918  161.6012 C.ar    1  UNL1        0.1646
      5 N         139.9574  140.3548  161.0298 N.ar    1  UNL1       -0.2224
      6 C         139.7204  137.5713  156.7424 C.ar    1  UNL1        0.2416
      7 N         139.2486  138.6142  157.7119 N.ar    1  UNL1       -0.2089
      8 C         140.2393  139.3408  158.5727 C.ar    1  UNL1        0.1026
      9 C         141.7015  139.0245  158.4639 C.ar    1  UNL1        0.0224
     10 C         142.1731  137.9815  157.4944 C.ar    1  UNL1        0.0239
     11 C         141.1825  137.2550  156.6337 C.ar    1  UNL1        0.1189
     12 N         141.6542  136.2120  155.6642 N.ar    1  UNL1       -0.2826
     13 C         141.7876  136.3839  154.1800 C.ar    1  UNL1        0.1826
     14 N         142.2910  135.0923  153.6072 N.ar    1  UNL1       -0.2280
     15 C         142.4689  134.1220  154.7374 C.ar    1  UNL1        0.0786
     16 C         142.9550  132.7081  154.6174 C.3     1  UNL1        0.0538
     17 C         142.0752  134.8142  156.0087 C.ar    1  UNL1        0.0963
     18 C         138.2228  137.4807  154.6213 C.3     1  UNL1        0.2543
     19 O         138.7298  136.8447  155.8817 O.3     1  UNL1       -0.4551
     20 N         139.2882  141.9692  163.0524 N.pl3   1  UNL1       -0.2786
     21 H         138.4541  142.3114  163.4480 H       1  UNL1        0.1555
     22 C         140.5168  141.8251  163.9009 C.ar    1  UNL1        0.1274
     23 C         141.6225  142.8305  164.0291 C.ar    1  UNL1        0.0244
     24 C         142.6444  142.2771  164.9776 C.ar    1  UNL1        0.0773
     25 N         142.1702  140.9297  165.4354 N.ar    1  UNL1       -0.1730
     26 N         140.8552  140.6504  164.7700 N.ar    1  UNL1       -0.2402
     27 C         143.8747  143.0716  165.3017 C.3     1  UNL1        0.0474
     28 C         144.0831  144.4195  164.6774 C.3     1  UNL1        0.0067
     29 C         143.0612  144.9729  163.7290 C.3     1  UNL1        0.0052
     30 C         141.8309  144.1784  163.4048 C.3     1  UNL1        0.0305
     31 C         140.0246  139.4134  164.9433 C.3     1  UNL1        0.1065
     32 C         138.5942  139.1379  165.3016 C.3     1  UNL1        0.0245
     33 C         138.8499  137.6642  165.1884 C.3     1  UNL1        0.0040
     34 C         140.2802  137.9396  164.8302 C.3     1  UNL1        0.0245
@<TRIPOS>BOND
     1    18    19    1
     2    19     6    1
     3     6     7   ar
     4     7     8   ar
     5     8     1    1
     6     1     2   ar
     7     2     3   ar
     8     3     4   ar
     9     4    20    1
    10    20    22    1
    11    22    23   ar
    12    23    24   ar
    13    24    25   ar
    14    25    26   ar
    15    26    31    1
    16    31    32    1
    17    32    33    1
    18    33    34    1
    19    24    27    1
    20    27    28    1
    21    28    29    1
    22    29    30    1
    23     4     5   ar
    24     8     9   ar
    25     9    10   ar
    26    10    11   ar
    27    11    12    1
    28    12    13   ar
    29    13    14   ar
    30    14    15   ar
    31    15    16    1
    32    15    17   ar
    33    11     6   ar
    34    17    12   ar
    35     5     1   ar
    36    26    22   ar
    37    34    31    1
    38    30    23    1
    39    20    21    1
@<TRIPOS>MOLECULE
*****
 34 39 0 0 0
SMALL
GASTEIGER

@<TRIPOS>ATOM
      1 C         139.5746  143.6316  162.8350 C.ar    1  UNL1        0.1074
      2 C         139.0921  144.5676  163.9031 C.ar    1  UNL1        0.0588
      3 S         138.9175  143.7784  165.1667 S.2     1  UNL1       -0.0508
      4 C         139.2922  142.3546  164.8795 C.ar    1  UNL1        0.1646
      5 N         139.6983  142.2639  163.4383 N.ar    1  UNL1       -0.2224
      6 C         139.4783  143.6673  158.8676 C.ar    1  UNL1        0.2416
      7 N         139.1729  143.3000  160.2896 N.ar    1  UNL1       -0.2089
      8 C         139.8799  143.9988  161.4130 C.ar    1  UNL1        0.1026
      9 C         140.8922  145.0647  161.1144 C.ar    1  UNL1        0.0224
     10 C         141.1974  145.4319  159.6924 C.ar    1  UNL1        0.0239
     11 C         140.4905  144.7332  158.5691 C.ar    1  UNL1        0.1189
     12 N         140.7958  145.1004  157.1471 N.ar    1  UNL1       -0.2826
     13 C         139.9910  146.0257  156.2831 C.ar    1  UNL1        0.1826
     14 N         140.6572  146.1040  154.9416 N.ar    1  UNL1       -0.2280
     15 C         141.8738  145.2270  154.9763 C.ar    1  UNL1        0.0786
     16 C         142.8358  145.0088  153.8463 C.3     1  UNL1        0.0538
     17 C         141.9594  144.6068  156.3394 C.ar    1  UNL1        0.0963
     18 C         139.3933  141.7652  157.0999 C.3     1  UNL1        0.2543
     19 O         138.7713  142.9685  157.7443 O.3     1  UNL1       -0.4551
     20 N         139.2654  141.2206  165.8610 N.pl3   1  UNL1       -0.2786
     21 H         138.4409  140.6973  165.9863 H       1  UNL1        0.1555
     22 C         140.4948  140.8839  166.6518 C.ar    1  UNL1        0.1274
     23 C         141.0158  141.6417  167.8368 C.ar    1  UNL1        0.0244
     24 C         142.2620  140.9565  168.3137 C.ar    1  UNL1        0.0773
     25 N         142.5111  139.7752  167.4235 N.ar    1  UNL1       -0.1730
     26 N         141.4189  139.7303  166.3963 N.ar    1  UNL1       -0.2402
     27 C         143.0089  141.4967  169.4970 C.3     1  UNL1        0.0474
     28 C         142.5097  142.7222  170.2033 C.3     1  UNL1        0.0067
     29 C         141.2635  143.4074  169.7264 C.3     1  UNL1        0.0052
     30 C         140.5166  142.8672  168.5431 C.3     1  UNL1        0.0305
     31 C         141.2759  138.7109  165.3053 C.3     1  UNL1        0.1065
     32 C         140.1879  137.7789  164.8604 C.3     1  UNL1        0.0245
     33 C         141.0737  137.2692  163.7624 C.3     1  UNL1        0.0040
     34 C         142.1616  138.2011  164.2073 C.3     1  UNL1        0.0245
@<TRIPOS>BOND
     1    18    19    1
     2    19     6    1
     3     6     7   ar
     4     7     8   ar
     5     8     1    1
     6     1     2   ar
     7     2     3   ar
     8     3     4   ar
     9     4    20    1
    10    20    22    1
    11    22    23   ar
    12    23    24   ar
    13    24    25   ar
    14    25    26   ar
    15    26    31    1
    16    31    32    1
    17    32    33    1
    18    33    34    1
    19    24    27    1
    20    27    28    1
    21    28    29    1
    22    29    30    1
    23     4     5   ar
    24     8     9   ar
    25     9    10   ar
    26    10    11   ar
    27    11    12    1
    28    12    13   ar
    29    13    14   ar
    30    14    15   ar
    31    15    16    1
    32    15    17   ar
    33    11     6   ar
    34    17    12   ar
    35     5     1   ar
    36    26    22   ar
    37    34    31    1
    38    30    23    1
    39    20    21    1
