@<TRIPOS>MOLECULE
*****
 34 35 0 0 0
SMALL
GASTEIGER

@<TRIPOS>ATOM
      1 C         142.6494  142.4860  163.4949 C.3     1  UNL1        0.0813
      2 C         144.0760  142.5626  163.0377 C.2     1  UNL1        0.2439
      3 O         144.4566  143.4873  161.9196 O.2     1  UNL1       -0.2731
      4 N         145.1219  141.7145  163.6985 N.am    1  UNL1       -0.1970
      5 O         146.5485  141.7911  163.2412 O.3     1  UNL1       -0.2952
      6 H         144.8722  141.1076  164.4323 H       1  UNL1        0.1822
      7 H         146.6218  142.4316  162.5165 H       1  UNL1        0.2414
      8 C         142.0799  143.5708  164.3601 C.3     1  UNL1        0.0093
      9 C         141.7955  144.9233  163.7772 C.3     1  UNL1        0.0019
     10 C         141.1423  145.0379  162.4318 C.3     1  UNL1        0.0171
     11 C         139.9358  145.9116  162.2558 C.3     1  UNL1        0.0688
     12 N         138.5780  145.2931  162.1013 N.3     1  UNL1       -0.2951
     13 H         137.8968  146.0382  162.2468 H       1  UNL1        0.1235
     14 C         138.1682  144.1529  162.9857 C.3     1  UNL1        0.0768
     15 C         138.2208  142.7459  162.4681 C.ar    1  UNL1       -0.0079
     16 C         137.6035  141.6318  163.2604 C.ar    1  UNL1       -0.0007
     17 C         137.6560  140.2249  162.7428 C.ar    1  UNL1        0.0294
     18 C         138.3258  139.9321  161.4330 C.ar    1  UNL1        0.1401
     19 F         138.3783  138.5252  160.9155 F       1  UNL1       -0.2042
     20 C         138.9431  141.0463  160.6407 C.ar    1  UNL1        0.0294
     21 C         138.8906  142.4532  161.1582 C.ar    1  UNL1       -0.0007
     22 C         138.7055  144.7442  165.4579 C.3     1  UNL1        0.0018
     23 C         137.7060  144.4196  164.3875 C.3     1  UNL1        0.0202
     24 C         141.7924  141.3244  163.0869 C.3     1  UNL1        0.0433
     25 C         141.8775  140.0291  163.8385 C.3     1  UNL1        0.1380
     26 C         140.6990  139.5412  164.6278 C.ar    1  UNL1        0.0047
     27 C         140.1443  138.1702  164.3774 C.ar    1  UNL1        0.0004
     28 C         138.9657  137.6823  165.1668 C.ar    1  UNL1        0.0294
     29 C         138.3420  138.5653  166.2065 C.ar    1  UNL1        0.1401
     30 F         137.1636  138.0774  166.9959 F       1  UNL1       -0.2042
     31 C         138.8968  139.9363  166.4570 C.ar    1  UNL1        0.0294
     32 C         140.0753  140.4242  165.6677 C.ar    1  UNL1        0.0004
     33 O         143.1412  139.2217  163.8007 O.3     1  UNL1       -0.3492
     34 C         143.6200  138.6384  162.5044 C.3     1  UNL1        0.1745
@<TRIPOS>BOND
     1    22    23    1
     2    23    14    1
     3    14    12    1
     4    12    11    1
     5    11    10    1
     6    10     9    1
     7     9     8    1
     8     1     8    1
     9     1    24    1
    10    25    24    1
    11    25    33    1
    12    33    34    1
    13    25    26    1
    14    26    27   ar
    15    27    28   ar
    16    28    29   ar
    17    29    30    1
    18    29    31   ar
    19    31    32   ar
    20     1     2    1
    21     2     3    2
    22     2     4   am
    23     4     5    1
    24    14    15    1
    25    15    16   ar
    26    16    17   ar
    27    17    18   ar
    28    18    19    1
    29    18    20   ar
    30    20    21   ar
    31    32    26   ar
    32    21    15   ar
    33    12    13    1
    34     4     6    1
    35     5     7    1
@<TRIPOS>MOLECULE
*****
 34 35 0 0 0
SMALL
GASTEIGER

@<TRIPOS>ATOM
      1 C         141.4640  143.9706  163.5862 C.3     1  UNL1        0.0813
      2 C         141.4247  144.0470  162.0887 C.2     1  UNL1        0.2439
      3 O         140.8723  142.9013  161.2935 O.2     1  UNL1       -0.2731
      4 N         141.9379  145.2690  161.3864 N.am    1  UNL1       -0.1970
      5 O         141.8986  145.3454  159.8888 O.3     1  UNL1       -0.2952
      6 H         142.3005  146.0210  161.9083 H       1  UNL1        0.1822
      7 H         141.5150  144.5285  159.5333 H       1  UNL1        0.2414
      8 C         140.2686  144.3885  164.3902 C.3     1  UNL1        0.0093
      9 C         139.0150  144.8309  163.6954 C.3     1  UNL1        0.0019
     10 C         137.7886  143.9683  163.7396 C.3     1  UNL1        0.0171
     11 C         137.6210  142.8518  162.7521 C.3     1  UNL1        0.0688
     12 N         136.9664  141.5697  163.1736 N.3     1  UNL1       -0.2951
     13 H         136.3999  141.7843  163.9942 H       1  UNL1        0.1235
     14 C         137.8075  140.3791  163.5274 C.3     1  UNL1        0.0768
     15 C         138.3664  140.2405  164.9124 C.ar    1  UNL1       -0.0079
     16 C         139.3133  141.2743  165.4460 C.ar    1  UNL1       -0.0007
     17 C         139.8723  141.1358  166.8310 C.ar    1  UNL1        0.0294
     18 C         139.4843  139.9635  167.6826 C.ar    1  UNL1        0.1401
     19 F         140.0433  139.8249  169.0676 F       1  UNL1       -0.2042
     20 C         138.5374  138.9296  167.1490 C.ar    1  UNL1        0.0294
     21 C         137.9784  139.0681  165.7640 C.ar    1  UNL1       -0.0007
     22 C         137.6837  139.5478  161.0689 C.3     1  UNL1        0.0018
     23 C         138.0896  139.3270  162.4961 C.3     1  UNL1        0.0202
     24 C         142.6988  143.4764  164.2799 C.3     1  UNL1        0.0433
     25 C         143.3942  142.2429  163.7849 C.3     1  UNL1        0.1380
     26 C         142.8190  140.8889  164.0781 C.ar    1  UNL1        0.0047
     27 C         141.9819  140.1905  163.0477 C.ar    1  UNL1        0.0004
     28 C         141.4067  138.8365  163.3410 C.ar    1  UNL1        0.0294
     29 C         141.6686  138.1810  164.6644 C.ar    1  UNL1        0.1401
     30 F         141.0934  136.8271  164.9576 F       1  UNL1       -0.2042
     31 C         142.5057  138.8794  165.6948 C.ar    1  UNL1        0.0294
     32 C         143.0809  140.2333  165.4016 C.ar    1  UNL1        0.0004
     33 O         144.6648  142.3634  162.9967 O.3     1  UNL1       -0.3492
     34 C         144.6222  142.8309  161.5722 C.3     1  UNL1        0.1745
@<TRIPOS>BOND
     1    22    23    1
     2    23    14    1
     3    14    12    1
     4    12    11    1
     5    11    10    1
     6    10     9    1
     7     9     8    1
     8     1     8    1
     9     1    24    1
    10    25    24    1
    11    25    33    1
    12    33    34    1
    13    25    26    1
    14    26    27   ar
    15    27    28   ar
    16    28    29   ar
    17    29    30    1
    18    29    31   ar
    19    31    32   ar
    20     1     2    1
    21     2     3    2
    22     2     4   am
    23     4     5    1
    24    14    15    1
    25    15    16   ar
    26    16    17   ar
    27    17    18   ar
    28    18    19    1
    29    18    20   ar
    30    20    21   ar
    31    32    26   ar
    32    21    15   ar
    33    12    13    1
    34     4     6    1
    35     5     7    1
@<TRIPOS>MOLECULE
*****
 34 35 0 0 0
SMALL
GASTEIGER

@<TRIPOS>ATOM
      1 C         141.0527  140.2537  168.0289 C.3     1  UNL1        0.0813
      2 C         141.0777  139.8739  169.4798 C.2     1  UNL1        0.2439
      3 O         142.3892  139.6871  170.1837 O.2     1  UNL1       -0.2731
      4 N         139.7914  139.6810  170.2269 N.am    1  UNL1       -0.1970
      5 O         139.8165  139.3012  171.6778 O.3     1  UNL1       -0.2952
      6 H         138.9307  139.8036  169.7650 H       1  UNL1        0.1822
      7 H         140.7363  139.2215  171.9754 H       1  UNL1        0.2414
      8 C         142.3282  140.2879  167.2405 C.3     1  UNL1        0.0093
      9 C         142.5921  139.2446  166.1956 C.3     1  UNL1        0.0019
     10 C         142.6144  139.6249  164.7447 C.3     1  UNL1        0.0171
     11 C         143.6747  140.5518  164.2285 C.3     1  UNL1        0.0688
     12 N         143.2978  141.9076  163.7094 N.3     1  UNL1       -0.2951
     13 H         143.2035  142.5180  164.5212 H       1  UNL1        0.1235
     14 C         142.0513  142.0780  162.8924 C.3     1  UNL1        0.0768
     15 C         140.8422  142.7291  163.4960 C.ar    1  UNL1       -0.0079
     16 C         140.8073  143.0305  164.9649 C.ar    1  UNL1       -0.0007
     17 C         139.5982  143.6815  165.5684 C.ar    1  UNL1        0.0294
     18 C         138.4240  144.0311  164.7030 C.ar    1  UNL1        0.1401
     19 F         137.2149  144.6821  165.3065 F       1  UNL1       -0.2042
     20 C         138.4588  143.7296  163.2340 C.ar    1  UNL1        0.0294
     21 C         139.6679  143.0786  162.6305 C.ar    1  UNL1       -0.0007
     22 C         141.5703  140.1978  161.1652 C.3     1  UNL1        0.0018
     23 C         142.0140  141.5975  161.4720 C.3     1  UNL1        0.0202
     24 C         139.7519  140.5994  167.3665 C.3     1  UNL1        0.0433
     25 C         138.8363  139.5081  166.8967 C.3     1  UNL1        0.1380
     26 C         138.7784  139.1526  165.4407 C.ar    1  UNL1        0.0047
     27 C         139.2968  137.8255  164.9715 C.ar    1  UNL1        0.0004
     28 C         139.2389  137.4700  163.5153 C.ar    1  UNL1        0.0294
     29 C         138.6626  138.4415  162.5284 C.ar    1  UNL1        0.1401
     30 F         138.6047  138.0860  161.0724 F       1  UNL1       -0.2042
     31 C         138.1442  139.7686  162.9976 C.ar    1  UNL1        0.0294
     32 C         138.2021  140.1241  164.4537 C.ar    1  UNL1        0.0004
     33 O         137.9785  138.7724  167.8831 O.3     1  UNL1       -0.3492
     34 C         137.0001  137.7414  167.4038 C.3     1  UNL1        0.1745
@<TRIPOS>BOND
     1    22    23    1
     2    23    14    1
     3    14    12    1
     4    12    11    1
     5    11    10    1
     6    10     9    1
     7     9     8    1
     8     1     8    1
     9     1    24    1
    10    25    24    1
    11    25    33    1
    12    33    34    1
    13    25    26    1
    14    26    27   ar
    15    27    28   ar
    16    28    29   ar
    17    29    30    1
    18    29    31   ar
    19    31    32   ar
    20     1     2    1
    21     2     3    2
    22     2     4   am
    23     4     5    1
    24    14    15    1
    25    15    16   ar
    26    16    17   ar
    27    17    18   ar
    28    18    19    1
    29    18    20   ar
    30    20    21   ar
    31    32    26   ar
    32    21    15   ar
    33    12    13    1
    34     4     6    1
    35     5     7    1
@<TRIPOS>MOLECULE
*****
 34 35 0 0 0
SMALL
GASTEIGER

@<TRIPOS>ATOM
      1 C         140.5970  144.0544  162.9075 C.3     1  UNL1        0.0813
      2 C         140.5832  144.8376  161.6282 C.2     1  UNL1        0.2439
      3 O         139.3105  145.4723  161.1511 O.2     1  UNL1       -0.2731
      4 N         141.8420  144.9860  160.8261 N.am    1  UNL1       -0.1970
      5 O         141.8282  145.7692  159.5469 O.3     1  UNL1       -0.2952
      6 H         142.6772  144.5694  161.1393 H       1  UNL1        0.1822
      7 H         140.9342  146.1091  159.3855 H       1  UNL1        0.2414
      8 C         139.7391  144.4854  164.0600 C.3     1  UNL1        0.0093
      9 C         139.0082  143.4603  164.8753 C.3     1  UNL1        0.0019
     10 C         137.6432  143.0017  164.4551 C.3     1  UNL1        0.0171
     11 C         137.4984  141.9577  163.3878 C.3     1  UNL1        0.0688
     12 N         137.3665  140.5121  163.7658 N.3     1  UNL1       -0.2951
     13 H         136.5339  140.4353  164.3500 H       1  UNL1        0.1235
     14 C         138.4777  139.8253  164.5031 C.3     1  UNL1        0.0768
     15 C         139.6068  139.1966  163.7415 C.ar    1  UNL1       -0.0079
     16 C         140.1763  137.8841  164.1921 C.ar    1  UNL1       -0.0007
     17 C         141.3054  137.2555  163.4306 C.ar    1  UNL1        0.0294
     18 C         141.8649  137.9392  162.2185 C.ar    1  UNL1        0.1401
     19 F         142.9940  137.3106  161.4569 F       1  UNL1       -0.2042
     20 C         141.2954  139.2518  161.7678 C.ar    1  UNL1        0.0294
     21 C         140.1664  139.8805  162.5294 C.ar    1  UNL1       -0.0007
     22 C         137.8087  138.6099  166.6998 C.3     1  UNL1        0.0018
     23 C         138.4598  139.7671  166.0018 C.3     1  UNL1        0.0202
     24 C         141.4687  142.8403  163.0342 C.3     1  UNL1        0.0433
     25 C         142.4858  142.7587  164.1337 C.3     1  UNL1        0.1380
     26 C         142.8274  141.4311  164.7424 C.ar    1  UNL1        0.0047
     27 C         143.9053  140.5827  164.1354 C.ar    1  UNL1        0.0004
     28 C         144.2468  139.2550  164.7442 C.ar    1  UNL1        0.0294
     29 C         143.5106  138.7757  165.9599 C.ar    1  UNL1        0.1401
     30 F         143.8521  137.4480  166.5687 F       1  UNL1       -0.2042
     31 C         142.4327  139.6240  166.5670 C.ar    1  UNL1        0.0294
     32 C         142.0911  140.9517  165.9582 C.ar    1  UNL1        0.0004
     33 O         143.1613  144.0049  164.6244 O.3     1  UNL1       -0.3492
     34 C         143.9384  144.8623  163.6700 C.3     1  UNL1        0.1745
@<TRIPOS>BOND
     1    22    23    1
     2    23    14    1
     3    14    12    1
     4    12    11    1
     5    11    10    1
     6    10     9    1
     7     9     8    1
     8     1     8    1
     9     1    24    1
    10    25    24    1
    11    25    33    1
    12    33    34    1
    13    25    26    1
    14    26    27   ar
    15    27    28   ar
    16    28    29   ar
    17    29    30    1
    18    29    31   ar
    19    31    32   ar
    20     1     2    1
    21     2     3    2
    22     2     4   am
    23     4     5    1
    24    14    15    1
    25    15    16   ar
    26    16    17   ar
    27    17    18   ar
    28    18    19    1
    29    18    20   ar
    30    20    21   ar
    31    32    26   ar
    32    21    15   ar
    33    12    13    1
    34     4     6    1
    35     5     7    1
@<TRIPOS>MOLECULE
*****
 34 35 0 0 0
SMALL
GASTEIGER

@<TRIPOS>ATOM
      1 C         141.5186  144.2458  162.8536 C.3     1  UNL1        0.0813
      2 C         140.8743  145.1228  161.8212 C.2     1  UNL1        0.2439
      3 O         141.2579  144.9876  160.3774 O.2     1  UNL1       -0.2731
      4 N         139.8466  146.1348  162.2326 N.am    1  UNL1       -0.1970
      5 O         139.2023  147.0118  161.2002 O.3     1  UNL1       -0.2952
      6 H         139.5948  146.2235  163.1802 H       1  UNL1        0.1822
      7 H         139.5602  146.7970  160.3246 H       1  UNL1        0.2414
      8 C         142.7421  144.7184  163.5813 C.3     1  UNL1        0.0093
      9 C         144.1052  144.3627  163.0662 C.3     1  UNL1        0.0019
     10 C         144.2506  143.3637  161.9566 C.3     1  UNL1        0.0171
     11 C         145.1579  142.1813  162.1261 C.3     1  UNL1        0.0688
     12 N         145.1505  141.4085  163.4116 N.3     1  UNL1       -0.2951
     13 H         145.8960  140.7158  163.3430 H       1  UNL1        0.1235
     14 C         143.9142  140.6734  163.8377 C.3     1  UNL1        0.0768
     15 C         143.4581  140.7375  165.2652 C.ar    1  UNL1       -0.0079
     16 C         143.0666  139.4809  165.9846 C.ar    1  UNL1       -0.0007
     17 C         142.6105  139.5450  167.4121 C.ar    1  UNL1        0.0294
     18 C         142.5459  140.8658  168.1203 C.ar    1  UNL1        0.1401
     19 F         142.0898  140.9299  169.5478 F       1  UNL1       -0.2042
     20 C         142.9374  142.1225  167.4009 C.ar    1  UNL1        0.0294
     21 C         143.3936  142.0583  165.9733 C.ar    1  UNL1       -0.0007
     22 C         143.6654  138.5588  162.3488 C.3     1  UNL1        0.0018
     23 C         143.1342  139.8743  162.8363 C.3     1  UNL1        0.0202
     24 C         140.9392  142.8961  163.1584 C.3     1  UNL1        0.0433
     25 C         140.2241  142.6626  164.4561 C.3     1  UNL1        0.1380
     26 C         139.7557  141.2841  164.8168 C.ar    1  UNL1        0.0047
     27 C         139.6308  140.2324  163.7545 C.ar    1  UNL1        0.0004
     28 C         139.1624  138.8538  164.1153 C.ar    1  UNL1        0.0294
     29 C         138.8189  138.5269  165.5384 C.ar    1  UNL1        0.1401
     30 F         138.3505  137.1484  165.8991 F       1  UNL1       -0.2042
     31 C         138.9437  139.5785  166.6007 C.ar    1  UNL1        0.0294
     32 C         139.4121  140.9571  166.2399 C.ar    1  UNL1        0.0004
     33 O         139.9773  143.8077  165.3931 O.3     1  UNL1       -0.3492
     34 C         138.7141  144.6089  165.2821 C.3     1  UNL1        0.1745
@<TRIPOS>BOND
     1    22    23    1
     2    23    14    1
     3    14    12    1
     4    12    11    1
     5    11    10    1
     6    10     9    1
     7     9     8    1
     8     1     8    1
     9     1    24    1
    10    25    24    1
    11    25    33    1
    12    33    34    1
    13    25    26    1
    14    26    27   ar
    15    27    28   ar
    16    28    29   ar
    17    29    30    1
    18    29    31   ar
    19    31    32   ar
    20     1     2    1
    21     2     3    2
    22     2     4   am
    23     4     5    1
    24    14    15    1
    25    15    16   ar
    26    16    17   ar
    27    17    18   ar
    28    18    19    1
    29    18    20   ar
    30    20    21   ar
    31    32    26   ar
    32    21    15   ar
    33    12    13    1
    34     4     6    1
    35     5     7    1
@<TRIPOS>MOLECULE
*****
 34 35 0 0 0
SMALL
GASTEIGER

@<TRIPOS>ATOM
      1 C         139.7431  140.6824  168.3852 C.3     1  UNL1        0.0813
      2 C         139.6099  140.4325  169.8583 C.2     1  UNL1        0.2439
      3 O         138.3040  139.9576  170.4233 O.2     1  UNL1       -0.2731
      4 N         140.7825  140.6575  170.7662 N.am    1  UNL1       -0.1970
      5 O         140.6493  140.4076  172.2392 O.3     1  UNL1       -0.2952
      6 H         141.6395  140.9692  170.3953 H       1  UNL1        0.1822
      7 H         139.7481  140.1074  172.4361 H       1  UNL1        0.2414
      8 C         139.2475  139.6623  167.4036 C.3     1  UNL1        0.0093
      9 C         138.8700  140.0806  166.0135 C.3     1  UNL1        0.0019
     10 C         139.4224  139.3405  164.8314 C.3     1  UNL1        0.0171
     11 C         138.7397  139.4383  163.4994 C.3     1  UNL1        0.0688
     12 N         139.4997  139.9245  162.3011 N.3     1  UNL1       -0.2951
     13 H         140.4728  139.6513  162.4388 H       1  UNL1        0.1235
     14 C         139.5044  141.3847  161.9576 C.3     1  UNL1        0.0768
     15 C         139.2389  142.4066  163.0230 C.ar    1  UNL1       -0.0079
     16 C         137.8506  142.9382  163.2230 C.ar    1  UNL1       -0.0007
     17 C         137.5851  143.9602  164.2884 C.ar    1  UNL1        0.0294
     18 C         138.7079  144.4505  165.1538 C.ar    1  UNL1        0.1401
     19 F         138.4424  145.4725  166.2192 F       1  UNL1       -0.2042
     20 C         140.0963  143.9189  164.9538 C.ar    1  UNL1        0.0294
     21 C         140.3618  142.8969  163.8884 C.ar    1  UNL1       -0.0007
     22 C         139.3293  140.9683  159.3990 C.3     1  UNL1        0.0018
     23 C         139.7745  141.8228  160.5487 C.3     1  UNL1        0.0202
     24 C         140.3720  141.9525  167.8939 C.3     1  UNL1        0.0433
     25 C         141.8621  142.1185  167.9403 C.3     1  UNL1        0.1380
     26 C         142.7050  141.6503  166.7913 C.ar    1  UNL1        0.0047
     27 C         143.4780  142.6431  165.9747 C.ar    1  UNL1        0.0004
     28 C         144.3210  142.1749  164.8257 C.ar    1  UNL1        0.0294
     29 C         144.3909  140.7139  164.4932 C.ar    1  UNL1        0.1401
     30 F         145.2338  140.2457  163.3442 F       1  UNL1       -0.2042
     31 C         143.6179  139.7211  165.3098 C.ar    1  UNL1        0.0294
     32 C         142.7749  140.1892  166.4588 C.ar    1  UNL1        0.0004
     33 O         142.5092  142.7526  169.1358 O.3     1  UNL1       -0.3492
     34 C         143.7948  142.1988  169.6747 C.3     1  UNL1        0.1745
@<TRIPOS>BOND
     1    22    23    1
     2    23    14    1
     3    14    12    1
     4    12    11    1
     5    11    10    1
     6    10     9    1
     7     9     8    1
     8     1     8    1
     9     1    24    1
    10    25    24    1
    11    25    33    1
    12    33    34    1
    13    25    26    1
    14    26    27   ar
    15    27    28   ar
    16    28    29   ar
    17    29    30    1
    18    29    31   ar
    19    31    32   ar
    20     1     2    1
    21     2     3    2
    22     2     4   am
    23     4     5    1
    24    14    15    1
    25    15    16   ar
    26    16    17   ar
    27    17    18   ar
    28    18    19    1
    29    18    20   ar
    30    20    21   ar
    31    32    26   ar
    32    21    15   ar
    33    12    13    1
    34     4     6    1
    35     5     7    1
@<TRIPOS>MOLECULE
*****
 34 35 0 0 0
SMALL
GASTEIGER

@<TRIPOS>ATOM
      1 C         142.0694  144.1500  163.5858 C.3     1  UNL1        0.0813
      2 C         142.0568  143.9593  162.0980 C.2     1  UNL1        0.2439
      3 O         142.0362  142.5755  161.5194 O.2     1  UNL1       -0.2731
      4 N         142.0647  145.1524  161.1889 N.am    1  UNL1       -0.1970
      5 O         142.0521  144.9617  159.7011 O.3     1  UNL1       -0.2952
      6 H         142.0782  146.0606  161.5687 H       1  UNL1        0.1822
      7 H         142.0393  144.0135  159.4967 H       1  UNL1        0.2414
      8 C         143.3725  144.3181  164.3093 C.3     1  UNL1        0.0093
      9 C         143.8719  143.2332  165.2168 C.3     1  UNL1        0.0019
     10 C         143.5713  141.7971  164.9049 C.3     1  UNL1        0.0171
     11 C         144.5757  140.9641  164.1651 C.3     1  UNL1        0.0688
     12 N         144.3615  139.4870  164.0169 N.3     1  UNL1       -0.2951
     13 H         144.1787  139.3137  163.0284 H       1  UNL1        0.1235
     14 C         143.2673  138.8069  164.7853 C.3     1  UNL1        0.0768
     15 C         141.9205  138.6081  164.1556 C.ar    1  UNL1       -0.0079
     16 C         141.5055  139.4550  162.9892 C.ar    1  UNL1       -0.0007
     17 C         140.1587  139.2562  162.3595 C.ar    1  UNL1        0.0294
     18 C         139.2268  138.2105  162.8961 C.ar    1  UNL1        0.1401
     19 F         137.8800  138.0116  162.2664 F       1  UNL1       -0.2042
     20 C         139.6418  137.3635  164.0626 C.ar    1  UNL1        0.0294
     21 C         140.9886  137.5623  164.6923 C.ar    1  UNL1       -0.0007
     22 C         143.0140  139.1181  167.3522 C.3     1  UNL1        0.0018
     23 C         143.5200  138.3257  166.1833 C.3     1  UNL1        0.0202
     24 C         140.7788  144.1726  164.3500 C.3     1  UNL1        0.0433
     25 C         139.9420  142.9313  164.4456 C.3     1  UNL1        0.1380
     26 C         139.9276  142.1325  165.7151 C.ar    1  UNL1        0.0047
     27 C         140.5486  142.6922  166.9606 C.ar    1  UNL1        0.0004
     28 C         140.5341  141.8933  168.2301 C.ar    1  UNL1        0.0294
     29 C         139.8986  140.5348  168.2542 C.ar    1  UNL1        0.1401
     30 F         139.8842  139.7360  169.5236 F       1  UNL1       -0.2042
     31 C         139.2776  139.9752  167.0087 C.ar    1  UNL1        0.0294
     32 C         139.2921  140.7740  165.7392 C.ar    1  UNL1        0.0004
     33 O         139.1197  142.4889  163.2717 O.3     1  UNL1       -0.3492
     34 C         138.4042  143.5050  162.4317 C.3     1  UNL1        0.1745
@<TRIPOS>BOND
     1    22    23    1
     2    23    14    1
     3    14    12    1
     4    12    11    1
     5    11    10    1
     6    10     9    1
     7     9     8    1
     8     1     8    1
     9     1    24    1
    10    25    24    1
    11    25    33    1
    12    33    34    1
    13    25    26    1
    14    26    27   ar
    15    27    28   ar
    16    28    29   ar
    17    29    30    1
    18    29    31   ar
    19    31    32   ar
    20     1     2    1
    21     2     3    2
    22     2     4   am
    23     4     5    1
    24    14    15    1
    25    15    16   ar
    26    16    17   ar
    27    17    18   ar
    28    18    19    1
    29    18    20   ar
    30    20    21   ar
    31    32    26   ar
    32    21    15   ar
    33    12    13    1
    34     4     6    1
    35     5     7    1
@<TRIPOS>MOLECULE
*****
 34 35 0 0 0
SMALL
GASTEIGER

@<TRIPOS>ATOM
      1 C         139.5618  139.6506  166.3617 C.3     1  UNL1        0.0813
      2 C         138.5673  139.3246  167.4363 C.2     1  UNL1        0.2439
      3 O         137.2991  138.6020  167.0904 O.2     1  UNL1       -0.2731
      4 N         138.8409  139.7213  168.8567 N.am    1  UNL1       -0.1970
      5 O         137.8464  139.3953  169.9313 O.3     1  UNL1       -0.2952
      6 H         139.6733  140.1956  169.0838 H       1  UNL1        0.1822
      7 H         137.0894  138.9311  169.5412 H       1  UNL1        0.2414
      8 C         139.8205  138.6698  165.2567 C.3     1  UNL1        0.0093
      9 C         138.8733  138.5794  164.0972 C.3     1  UNL1        0.0019
     10 C         139.3879  138.2208  162.7345 C.3     1  UNL1        0.0171
     11 C         138.8636  138.9336  161.5233 C.3     1  UNL1        0.0688
     12 N         139.0555  140.4146  161.3830 N.3     1  UNL1       -0.2951
     13 H         139.3381  140.5847  160.4178 H       1  UNL1        0.1235
     14 C         140.0444  141.1288  162.2560 C.3     1  UNL1        0.0768
     15 C         139.5764  142.1921  163.2049 C.ar    1  UNL1       -0.0079
     16 C         140.5512  143.1945  163.7479 C.ar    1  UNL1       -0.0007
     17 C         140.0832  144.2579  164.6967 C.ar    1  UNL1        0.0294
     18 C         138.6404  144.3188  165.1025 C.ar    1  UNL1        0.1401
     19 F         138.1724  145.3822  166.0513 F       1  UNL1       -0.2042
     20 C         137.6655  143.3164  164.5594 C.ar    1  UNL1        0.0294
     21 C         138.1336  142.2530  163.6106 C.ar    1  UNL1       -0.0007
     22 C         142.3476  141.3299  161.0708 C.3     1  UNL1        0.0018
     23 C         141.5012  140.7796  162.1802 C.3     1  UNL1        0.0202
     24 C         140.2976  140.9574  166.3921 C.3     1  UNL1        0.0433
     25 C         141.6942  141.0193  166.9358 C.3     1  UNL1        0.1380
     26 C         142.8516  141.2376  166.0069 C.ar    1  UNL1        0.0047
     27 C         143.4216  142.6137  165.8296 C.ar    1  UNL1        0.0004
     28 C         144.5790  142.8321  164.9007 C.ar    1  UNL1        0.0294
     29 C         145.1664  141.6744  164.1492 C.ar    1  UNL1        0.1401
     30 F         146.3238  141.8928  163.2204 F       1  UNL1       -0.2042
     31 C         144.5964  140.2983  164.3266 C.ar    1  UNL1        0.0294
     32 C         143.4390  140.0799  165.2554 C.ar    1  UNL1        0.0004
     33 O         141.9335  140.8627  168.4083 O.3     1  UNL1       -0.3492
     34 C         142.4025  139.5475  168.9563 C.3     1  UNL1        0.1745
@<TRIPOS>BOND
     1    22    23    1
     2    23    14    1
     3    14    12    1
     4    12    11    1
     5    11    10    1
     6    10     9    1
     7     9     8    1
     8     1     8    1
     9     1    24    1
    10    25    24    1
    11    25    33    1
    12    33    34    1
    13    25    26    1
    14    26    27   ar
    15    27    28   ar
    16    28    29   ar
    17    29    30    1
    18    29    31   ar
    19    31    32   ar
    20     1     2    1
    21     2     3    2
    22     2     4   am
    23     4     5    1
    24    14    15    1
    25    15    16   ar
    26    16    17   ar
    27    17    18   ar
    28    18    19    1
    29    18    20   ar
    30    20    21   ar
    31    32    26   ar
    32    21    15   ar
    33    12    13    1
    34     4     6    1
    35     5     7    1
@<TRIPOS>MOLECULE
*****
 34 35 0 0 0
SMALL
GASTEIGER

@<TRIPOS>ATOM
      1 C         140.8377  141.0048  168.2186 C.3     1  UNL1        0.0813
      2 C         140.0307  140.8169  169.4690 C.2     1  UNL1        0.2439
      3 O         140.3915  141.5707  170.7147 O.2     1  UNL1       -0.2731
      4 N         138.8631  139.8754  169.4737 N.am    1  UNL1       -0.1970
      5 O         138.0561  139.6876  170.7242 O.3     1  UNL1       -0.2952
      6 H         138.6263  139.3807  168.6562 H       1  UNL1        0.1822
      7 H         138.4202  140.2439  171.4305 H       1  UNL1        0.2414
      8 C         142.2875  140.6206  168.1968 C.3     1  UNL1        0.0093
      9 C         142.6955  139.2593  167.7171 C.3     1  UNL1        0.0019
     10 C         142.8069  138.9844  166.2467 C.3     1  UNL1        0.0171
     11 C         143.5916  139.9125  165.3675 C.3     1  UNL1        0.0688
     12 N         142.8788  140.8150  164.4045 N.3     1  UNL1       -0.2951
     13 H         143.2974  140.6568  163.4879 H       1  UNL1        0.1235
     14 C         142.8753  142.2981  164.6288 C.3     1  UNL1        0.0768
     15 C         142.1458  143.1989  163.6767 C.ar    1  UNL1       -0.0079
     16 C         142.2710  142.9855  162.1973 C.ar    1  UNL1       -0.0007
     17 C         141.5415  143.8862  161.2452 C.ar    1  UNL1        0.0294
     18 C         140.6868  145.0004  161.7725 C.ar    1  UNL1        0.1401
     19 F         139.9573  145.9011  160.8204 F       1  UNL1       -0.2042
     20 C         140.5616  145.2138  163.2520 C.ar    1  UNL1        0.0294
     21 C         141.2910  144.3131  164.2041 C.ar    1  UNL1       -0.0007
     22 C         144.7698  143.7953  165.5876 C.3     1  UNL1        0.0018
     23 C         143.6011  142.8805  165.8052 C.3     1  UNL1        0.0202
     24 C         140.1948  141.5767  166.9899 C.3     1  UNL1        0.0433
     25 C         139.5161  140.6694  166.0070 C.3     1  UNL1        0.1380
     26 C         139.0824  141.1995  164.6725 C.ar    1  UNL1        0.0047
     27 C         139.5797  140.5559  163.4122 C.ar    1  UNL1        0.0004
     28 C         139.1460  141.0861  162.0777 C.ar    1  UNL1        0.0294
     29 C         138.2149  142.2598  162.0036 C.ar    1  UNL1        0.1401
     30 F         137.7812  142.7899  160.6691 F       1  UNL1       -0.2042
     31 C         137.7176  142.9034  163.2639 C.ar    1  UNL1        0.0294
     32 C         138.1513  142.3733  164.5984 C.ar    1  UNL1        0.0004
     33 O         139.2711  139.2318  166.3586 O.3     1  UNL1       -0.3492
     34 C         137.8709  138.6948  166.3870 C.3     1  UNL1        0.1745
@<TRIPOS>BOND
     1    22    23    1
     2    23    14    1
     3    14    12    1
     4    12    11    1
     5    11    10    1
     6    10     9    1
     7     9     8    1
     8     1     8    1
     9     1    24    1
    10    25    24    1
    11    25    33    1
    12    33    34    1
    13    25    26    1
    14    26    27   ar
    15    27    28   ar
    16    28    29   ar
    17    29    30    1
    18    29    31   ar
    19    31    32   ar
    20     1     2    1
    21     2     3    2
    22     2     4   am
    23     4     5    1
    24    14    15    1
    25    15    16   ar
    26    16    17   ar
    27    17    18   ar
    28    18    19    1
    29    18    20   ar
    30    20    21   ar
    31    32    26   ar
    32    21    15   ar
    33    12    13    1
    34     4     6    1
    35     5     7    1
