@<TRIPOS>MOLECULE
*****
 31 33 0 0 0
SMALL
GASTEIGER

@<TRIPOS>ATOM
      1 N         138.8238  138.8322  162.8494 N.3     1  UNL1       -0.2724
      2 C         139.2948  137.6691  163.6712 C.3     1  UNL1        0.0758
      3 C         139.1891  137.7156  165.1667 C.3     1  UNL1        0.0609
      4 C         138.6123  138.9253  165.8405 C.3     1  UNL1        0.1687
      5 C         138.1414  140.0885  165.0188 C.3     1  UNL1        0.0609
      6 C         138.2471  140.0419  163.5232 C.3     1  UNL1        0.0758
      7 C         138.9296  138.7856  161.3539 C.3     1  UNL1        0.0721
      8 N         140.0480  142.4925  159.0608 N.3     1  UNL1       -0.2727
      9 C         141.0780  141.7840  159.8897 C.3     1  UNL1        0.0721
     10 C         140.7052  140.5484  160.6541 C.3     1  UNL1        0.0188
     11 C         139.3024  140.0212  160.5895 C.3     1  UNL1        0.0188
     12 C         138.2724  140.7297  159.7606 C.3     1  UNL1        0.0188
     13 C         138.6452  141.9653  158.9962 C.3     1  UNL1        0.0721
     14 C         140.4209  143.7281  158.2964 C.3     1  UNL1        0.0727
     15 C         140.2930  145.0762  158.9414 C.3     1  UNL1        0.0290
     16 C         141.0026  145.3605  160.2320 C.3     1  UNL1        0.1110
     17 C         140.2576  145.2787  161.5314 C.2     1  UNL1        0.3171
     18 O         140.9396  145.6587  162.8122 O.2     1  UNL1       -0.2501
     19 C         138.4517  143.5818  162.3120 C.3     1  UNL1        0.2556
     20 O         138.8305  144.8169  161.5499 O.3     1  UNL1       -0.4444
     21 O         138.5066  138.9719  167.3361 O.3     1  UNL1       -0.4790
     22 C         139.3962  139.8883  168.1227 C.ar    1  UNL1        0.1392
     23 C         138.9613  140.3805  169.4713 C.ar    1  UNL1        0.0367
     24 C         139.8509  141.2970  170.2579 C.ar    1  UNL1        0.0021
     25 C         141.1754  141.7212  169.6959 C.ar    1  UNL1        0.0177
     26 C         141.6103  141.2290  168.3474 C.ar    1  UNL1        0.0590
     27 CL        142.9347  141.6531  167.7854 Cl      1  UNL1       -0.0824
     28 C         140.7206  140.3125  167.5608 C.ar    1  UNL1        0.0480
     29 C         142.0650  142.6376  170.4825 C.3     1  UNL1        0.1644
     30 O         142.2768  142.4012  171.9485 O.3     1  UNL1       -0.3772
     31 H         141.4418  142.5395  172.4223 H       1  UNL1        0.2109
@<TRIPOS>BOND
     1    19    20    1
     2    20    17    1
     3    17    18    2
     4    17    16    1
     5    16    15    1
     6    15    14    1
     7    14     8    1
     8     8     9    1
     9     9    10    1
    10    10    11    1
    11    11     7    1
    12     7     1    1
    13     1     2    1
    14     2     3    1
    15     3     4    1
    16     4    21    1
    17    21    22    1
    18    22    23   ar
    19    23    24   ar
    20    24    25   ar
    21    25    29    1
    22    29    30    1
    23    25    26   ar
    24    26    27    1
    25    26    28   ar
    26     4     5    1
    27     5     6    1
    28    11    12    1
    29    12    13    1
    30    13     8    1
    31     6     1    1
    32    28    22   ar
    33    30    31    1
@<TRIPOS>MOLECULE
*****
 31 33 0 0 0
SMALL
GASTEIGER

@<TRIPOS>ATOM
      1 N         138.6463  138.9174  162.9274 N.3     1  UNL1       -0.2724
      2 C         139.0071  137.6986  163.7240 C.3     1  UNL1        0.0758
      3 C         138.9327  137.7324  165.2218 C.3     1  UNL1        0.0609
      4 C         138.4974  138.9850  165.9230 C.3     1  UNL1        0.1687
      5 C         138.1366  140.2037  165.1264 C.3     1  UNL1        0.0609
      6 C         138.2110  140.1699  163.6286 C.3     1  UNL1        0.0758
      7 C         138.7207  138.8835  161.4297 C.3     1  UNL1        0.0721
      8 N         142.2861  140.6333  159.3139 N.3     1  UNL1       -0.2727
      9 C         140.9703  141.3529  159.2870 C.3     1  UNL1        0.0721
     10 C         139.7819  140.7697  159.9922 C.3     1  UNL1        0.0188
     11 C         139.9092  139.4668  160.7244 C.3     1  UNL1        0.0188
     12 C         141.2250  138.7472  160.7514 C.3     1  UNL1        0.0188
     13 C         142.4134  139.3304  160.0462 C.3     1  UNL1        0.0721
     14 C         143.4746  141.2166  158.6087 C.3     1  UNL1        0.0727
     15 C         144.2466  142.3366  159.2408 C.3     1  UNL1        0.0290
     16 C         144.5371  142.3104  160.7121 C.3     1  UNL1        0.1110
     17 C         143.9723  143.3736  161.6071 C.2     1  UNL1        0.3171
     18 O         142.8229  144.2157  161.1385 O.2     1  UNL1       -0.2501
     19 C         143.8024  143.1558  164.1904 C.3     1  UNL1        0.2556
     20 O         144.5571  143.5945  162.9706 O.3     1  UNL1       -0.4444
     21 O         138.4230  139.0188  167.4208 O.3     1  UNL1       -0.4790
     22 C         139.3489  139.9069  168.1979 C.ar    1  UNL1        0.1392
     23 C         138.9678  140.3670  169.5738 C.ar    1  UNL1        0.0367
     24 C         139.8937  141.2551  170.3508 C.ar    1  UNL1        0.0021
     25 C         141.2007  141.6832  169.7520 C.ar    1  UNL1        0.0177
     26 C         141.5818  141.2231  168.3761 C.ar    1  UNL1        0.0590
     27 CL        142.8887  141.6512  167.7773 Cl      1  UNL1       -0.0824
     28 C         140.6558  140.3349  167.5990 C.ar    1  UNL1        0.0480
     29 C         142.1266  142.5714  170.5291 C.3     1  UNL1        0.1644
     30 O         142.2439  142.4146  172.0163 O.3     1  UNL1       -0.3772
     31 H         141.4015  142.6532  172.4340 H       1  UNL1        0.2109
@<TRIPOS>BOND
     1    19    20    1
     2    20    17    1
     3    17    18    2
     4    17    16    1
     5    16    15    1
     6    15    14    1
     7    14     8    1
     8     8     9    1
     9     9    10    1
    10    10    11    1
    11    11     7    1
    12     7     1    1
    13     1     2    1
    14     2     3    1
    15     3     4    1
    16     4    21    1
    17    21    22    1
    18    22    23   ar
    19    23    24   ar
    20    24    25   ar
    21    25    29    1
    22    29    30    1
    23    25    26   ar
    24    26    27    1
    25    26    28   ar
    26     4     5    1
    27     5     6    1
    28    11    12    1
    29    12    13    1
    30    13     8    1
    31     6     1    1
    32    28    22   ar
    33    30    31    1
@<TRIPOS>MOLECULE
*****
 31 33 0 0 0
SMALL
GASTEIGER

@<TRIPOS>ATOM
      1 N         138.8642  143.8158  162.2600 N.3     1  UNL1       -0.2724
      2 C         139.3537  143.0303  161.0795 C.3     1  UNL1        0.0758
      3 C         140.2786  143.6679  160.0856 C.3     1  UNL1        0.0609
      4 C         140.7141  145.0911  160.2721 C.3     1  UNL1        0.1687
      5 C         140.2248  145.8767  161.4525 C.3     1  UNL1        0.0609
      6 C         139.2998  145.2391  162.4465 C.3     1  UNL1        0.0758
      7 C         137.9393  143.1782  163.2538 C.3     1  UNL1        0.0721
      8 N         139.6198  140.9096  166.7581 N.3     1  UNL1       -0.2727
      9 C         138.7062  140.2216  165.7876 C.3     1  UNL1        0.0721
     10 C         138.1460  140.9777  164.6196 C.3     1  UNL1        0.0188
     11 C         138.4995  142.4220  164.4219 C.3     1  UNL1        0.0188
     12 C         139.4131  143.1101  165.3924 C.3     1  UNL1        0.0188
     13 C         139.9732  142.3539  166.5604 C.3     1  UNL1        0.0721
     14 C         140.1799  140.1535  167.9262 C.3     1  UNL1        0.0727
     15 C         139.6197  140.3730  169.3001 C.3     1  UNL1        0.0290
     16 C         140.5278  140.7710  170.4257 C.3     1  UNL1        0.1110
     17 C         140.6155  142.2082  170.8463 C.2     1  UNL1        0.3171
     18 O         139.4128  142.8963  171.4206 O.2     1  UNL1       -0.2501
     19 C         142.8484  142.6070  169.5794 C.3     1  UNL1        0.2556
     20 O         141.9060  142.9572  170.6926 O.3     1  UNL1       -0.4444
     21 O         141.6391  145.7288  159.2781 O.3     1  UNL1       -0.4790
     22 C         141.3449  145.6322  157.8105 C.ar    1  UNL1        0.1392
     23 C         142.3391  144.9933  156.8867 C.ar    1  UNL1        0.0367
     24 C         142.0449  144.8967  155.4190 C.ar    1  UNL1        0.0021
     25 C         140.7563  145.4390  154.8751 C.ar    1  UNL1        0.0177
     26 C         139.7621  146.0778  155.7989 C.ar    1  UNL1        0.0590
     27 CL        138.4737  146.6201  155.2551 Cl      1  UNL1       -0.0824
     28 C         140.0564  146.1744  157.2666 C.ar    1  UNL1        0.0480
     29 C         140.4621  145.3424  153.4075 C.3     1  UNL1        0.1644
     30 O         140.6789  146.5315  152.5192 O.3     1  UNL1       -0.3772
     31 H         140.0575  147.2351  152.7633 H       1  UNL1        0.2109
@<TRIPOS>BOND
     1    19    20    1
     2    20    17    1
     3    17    18    2
     4    17    16    1
     5    16    15    1
     6    15    14    1
     7    14     8    1
     8     8     9    1
     9     9    10    1
    10    10    11    1
    11    11     7    1
    12     7     1    1
    13     1     2    1
    14     2     3    1
    15     3     4    1
    16     4    21    1
    17    21    22    1
    18    22    23   ar
    19    23    24   ar
    20    24    25   ar
    21    25    29    1
    22    29    30    1
    23    25    26   ar
    24    26    27    1
    25    26    28   ar
    26     4     5    1
    27     5     6    1
    28    11    12    1
    29    12    13    1
    30    13     8    1
    31     6     1    1
    32    28    22   ar
    33    30    31    1
@<TRIPOS>MOLECULE
*****
 31 33 0 0 0
SMALL
GASTEIGER

@<TRIPOS>ATOM
      1 N         142.6996  138.4004  162.7125 N.3     1  UNL1       -0.2724
      2 C         141.7433  137.7514  163.6688 C.3     1  UNL1        0.0758
      3 C         141.9967  137.8207  165.1456 C.3     1  UNL1        0.0609
      4 C         143.2062  138.5390  165.6662 C.3     1  UNL1        0.1687
      5 C         144.1624  139.1881  164.7100 C.3     1  UNL1        0.0609
      6 C         143.9091  139.1188  163.2331 C.3     1  UNL1        0.0758
      7 C         142.4463  138.3311  161.2357 C.3     1  UNL1        0.0721
      8 N         140.5697  141.8244  159.1083 N.3     1  UNL1       -0.2727
      9 C         142.0628  141.7201  159.2064 C.3     1  UNL1        0.0721
     10 C         142.6883  140.5557  159.9156 C.3     1  UNL1        0.0188
     11 C         141.8207  139.4956  160.5266 C.3     1  UNL1        0.0188
     12 C         140.3276  139.5999  160.4284 C.3     1  UNL1        0.0188
     13 C         139.7021  140.7643  159.7193 C.3     1  UNL1        0.0721
     14 C         139.9442  142.9888  158.3992 C.3     1  UNL1        0.0727
     15 C         140.6986  144.2783  158.2647 C.3     1  UNL1        0.0290
     16 C         140.2676  145.4843  159.0455 C.3     1  UNL1        0.1110
     17 C         140.3235  145.4667  160.5444 C.2     1  UNL1        0.3171
     18 O         139.3536  146.2881  161.3409 O.2     1  UNL1       -0.2501
     19 C         140.9252  143.6573  162.3091 C.3     1  UNL1        0.2556
     20 O         141.3495  144.6275  161.2468 O.3     1  UNL1       -0.4444
     21 O         143.4595  138.6083  167.1431 O.3     1  UNL1       -0.4790
     22 C         142.6546  139.5406  167.9991 C.ar    1  UNL1        0.1392
     23 C         142.4851  139.2574  169.4624 C.ar    1  UNL1        0.0367
     24 C         141.6802  140.1898  170.3184 C.ar    1  UNL1        0.0021
     25 C         141.0448  141.4054  169.7113 C.ar    1  UNL1        0.0177
     26 C         141.2142  141.6885  168.2480 C.ar    1  UNL1        0.0590
     27 CL        140.5788  142.9041  167.6408 Cl      1  UNL1       -0.0824
     28 C         142.0192  140.7561  167.3920 C.ar    1  UNL1        0.0480
     29 C         140.2399  142.3377  170.5673 C.3     1  UNL1        0.1644
     30 O         140.2927  142.2179  172.0616 O.3     1  UNL1       -0.3772
     31 H         139.9029  141.3718  172.3321 H       1  UNL1        0.2109
@<TRIPOS>BOND
     1    19    20    1
     2    20    17    1
     3    17    18    2
     4    17    16    1
     5    16    15    1
     6    15    14    1
     7    14     8    1
     8     8     9    1
     9     9    10    1
    10    10    11    1
    11    11     7    1
    12     7     1    1
    13     1     2    1
    14     2     3    1
    15     3     4    1
    16     4    21    1
    17    21    22    1
    18    22    23   ar
    19    23    24   ar
    20    24    25   ar
    21    25    29    1
    22    29    30    1
    23    25    26   ar
    24    26    27    1
    25    26    28   ar
    26     4     5    1
    27     5     6    1
    28    11    12    1
    29    12    13    1
    30    13     8    1
    31     6     1    1
    32    28    22   ar
    33    30    31    1
@<TRIPOS>MOLECULE
*****
 31 33 0 0 0
SMALL
GASTEIGER

@<TRIPOS>ATOM
      1 N         140.3648  138.8437  160.0213 N.3     1  UNL1       -0.2724
      2 C         141.3101  138.1808  160.9789 C.3     1  UNL1        0.0758
      3 C         140.8108  137.6855  162.3038 C.3     1  UNL1        0.0609
      4 C         139.3662  137.8530  162.6711 C.3     1  UNL1        0.1687
      5 C         138.4209  138.5159  161.7136 C.3     1  UNL1        0.0609
      6 C         138.9201  139.0112  160.3887 C.3     1  UNL1        0.0758
      7 C         140.8641  139.3390  158.6964 C.3     1  UNL1        0.0721
      8 N         142.1889  136.4055  155.5516 N.3     1  UNL1       -0.2727
      9 C         143.2084  137.1959  156.3171 C.3     1  UNL1        0.0721
     10 C         142.7668  138.1737  157.3654 C.3     1  UNL1        0.0188
     11 C         141.3057  138.3611  157.6482 C.3     1  UNL1        0.0188
     12 C         140.2862  137.5708  156.8827 C.3     1  UNL1        0.0188
     13 C         140.7278  136.5930  155.8344 C.3     1  UNL1        0.0721
     14 C         142.6305  135.4277  154.5034 C.3     1  UNL1        0.0727
     15 C         142.2375  133.9841  154.6111 C.3     1  UNL1        0.0290
     16 C         142.2881  133.2903  155.9400 C.3     1  UNL1        0.1110
     17 C         143.5700  133.2525  156.7181 C.2     1  UNL1        0.3171
     18 O         143.6596  133.9371  158.0497 O.2     1  UNL1       -0.2501
     19 C         144.6654  131.0717  155.8268 C.3     1  UNL1        0.2556
     20 O         144.7623  132.5300  156.1645 O.3     1  UNL1       -0.4444
     21 O         138.8669  137.3577  163.9961 O.3     1  UNL1       -0.4790
     22 C         139.0872  138.1757  165.2340 C.ar    1  UNL1        0.1392
     23 C         137.9825  138.3308  166.2368 C.ar    1  UNL1        0.0367
     24 C         138.2027  139.1488  167.4747 C.ar    1  UNL1        0.0021
     25 C         139.5277  139.8116  167.7098 C.ar    1  UNL1        0.0177
     26 C         140.6324  139.6565  166.7070 C.ar    1  UNL1        0.0590
     27 CL        141.9572  140.3193  166.9420 Cl      1  UNL1       -0.0824
     28 C         140.4121  138.8385  165.4690 C.ar    1  UNL1        0.0480
     29 C         139.7479  140.6296  168.9477 C.3     1  UNL1        0.1644
     30 O         139.8569  139.9549  170.2829 O.3     1  UNL1       -0.3772
     31 H         139.0072  139.5449  170.5083 H       1  UNL1        0.2109
@<TRIPOS>BOND
     1    19    20    1
     2    20    17    1
     3    17    18    2
     4    17    16    1
     5    16    15    1
     6    15    14    1
     7    14     8    1
     8     8     9    1
     9     9    10    1
    10    10    11    1
    11    11     7    1
    12     7     1    1
    13     1     2    1
    14     2     3    1
    15     3     4    1
    16     4    21    1
    17    21    22    1
    18    22    23   ar
    19    23    24   ar
    20    24    25   ar
    21    25    29    1
    22    29    30    1
    23    25    26   ar
    24    26    27    1
    25    26    28   ar
    26     4     5    1
    27     5     6    1
    28    11    12    1
    29    12    13    1
    30    13     8    1
    31     6     1    1
    32    28    22   ar
    33    30    31    1
@<TRIPOS>MOLECULE
*****
 31 33 0 0 0
SMALL
GASTEIGER

@<TRIPOS>ATOM
      1 N         140.7392  138.7530  158.6570 N.3     1  UNL1       -0.2724
      2 C         139.8196  138.1041  157.6653 C.3     1  UNL1        0.0758
      3 C         140.3688  137.1517  156.6449 C.3     1  UNL1        0.0609
      4 C         141.8374  136.8481  156.6161 C.3     1  UNL1        0.1687
      5 C         142.7570  137.4970  157.6077 C.3     1  UNL1        0.0609
      6 C         142.2079  138.4495  158.6282 C.3     1  UNL1        0.0758
      7 C         140.1901  139.7055  159.6774 C.3     1  UNL1        0.0721
      8 N         139.3938  138.2927  163.8750 N.3     1  UNL1       -0.2727
      9 C         140.4791  139.2946  163.6141 C.3     1  UNL1        0.0721
     10 C         140.7446  139.7655  162.2149 C.3     1  UNL1        0.0188
     11 C         139.9247  139.2345  161.0766 C.3     1  UNL1        0.0188
     12 C         138.8393  138.2327  161.3375 C.3     1  UNL1        0.0188
     13 C         138.5738  137.7617  162.7367 C.3     1  UNL1        0.0721
     14 C         139.1283  137.8218  165.2742 C.3     1  UNL1        0.0727
     15 C         138.2253  138.6131  166.1733 C.3     1  UNL1        0.0290
     16 C         138.7074  139.8989  166.7769 C.3     1  UNL1        0.1110
     17 C         139.4919  139.8796  168.0554 C.2     1  UNL1        0.3171
     18 O         138.7770  139.8439  169.3735 O.2     1  UNL1       -0.2501
     19 C         141.7046  140.6579  166.9384 C.3     1  UNL1        0.2556
     20 O         140.9912  139.8959  168.0155 O.3     1  UNL1       -0.4444
     21 O         142.3865  135.8956  155.5956 O.3     1  UNL1       -0.4790
     22 C         142.6767  134.4740  155.9761 C.ar    1  UNL1        0.1392
     23 C         141.7736  133.3725  155.5059 C.ar    1  UNL1        0.0367
     24 C         142.0637  131.9509  155.8864 C.ar    1  UNL1        0.0021
     25 C         143.2570  131.6308  156.7373 C.ar    1  UNL1        0.0177
     26 C         144.1600  132.7323  157.2075 C.ar    1  UNL1        0.0590
     27 CL        145.3532  132.4122  158.0583 Cl      1  UNL1       -0.0824
     28 C         143.8698  134.1540  156.8269 C.ar    1  UNL1        0.0480
     29 C         143.5471  130.2092  157.1178 C.3     1  UNL1        0.1644
     30 O         143.3643  129.7605  158.5374 O.3     1  UNL1       -0.3772
     31 H         144.0062  130.2148  159.1053 H       1  UNL1        0.2109
@<TRIPOS>BOND
     1    19    20    1
     2    20    17    1
     3    17    18    2
     4    17    16    1
     5    16    15    1
     6    15    14    1
     7    14     8    1
     8     8     9    1
     9     9    10    1
    10    10    11    1
    11    11     7    1
    12     7     1    1
    13     1     2    1
    14     2     3    1
    15     3     4    1
    16     4    21    1
    17    21    22    1
    18    22    23   ar
    19    23    24   ar
    20    24    25   ar
    21    25    29    1
    22    29    30    1
    23    25    26   ar
    24    26    27    1
    25    26    28   ar
    26     4     5    1
    27     5     6    1
    28    11    12    1
    29    12    13    1
    30    13     8    1
    31     6     1    1
    32    28    22   ar
    33    30    31    1
@<TRIPOS>MOLECULE
*****
 31 33 0 0 0
SMALL
GASTEIGER

@<TRIPOS>ATOM
      1 N         139.0255  138.3625  162.0176 N.3     1  UNL1       -0.2724
      2 C         140.0138  138.3230  160.8898 C.3     1  UNL1        0.0758
      3 C         139.7572  139.1113  159.6398 C.3     1  UNL1        0.0609
      4 C         138.5123  139.9391  159.5173 C.3     1  UNL1        0.1687
      5 C         137.5240  139.9786  160.6450 C.3     1  UNL1        0.0609
      6 C         137.7806  139.1903  161.8951 C.3     1  UNL1        0.0758
      7 C         139.2821  137.5742  163.2676 C.3     1  UNL1        0.0721
      8 N         140.6980  139.6626  166.9937 N.3     1  UNL1       -0.2727
      9 C         141.6950  139.1180  166.0143 C.3     1  UNL1        0.0721
     10 C         141.2231  138.4219  164.7723 C.3     1  UNL1        0.0188
     11 C         139.7541  138.2704  164.5097 C.3     1  UNL1        0.0188
     12 C         138.7570  138.8149  165.4891 C.3     1  UNL1        0.0188
     13 C         139.2290  139.5111  166.7311 C.3     1  UNL1        0.0721
     14 C         141.1700  140.3587  168.2358 C.3     1  UNL1        0.0727
     15 C         142.3055  141.3360  168.1623 C.3     1  UNL1        0.0290
     16 C         143.1121  141.6422  169.3894 C.3     1  UNL1        0.1110
     17 C         142.7216  142.7864  170.2773 C.2     1  UNL1        0.3171
     18 O         143.7562  143.7767  170.7233 O.2     1  UNL1       -0.2501
     19 C         140.3711  143.8483  169.9649 C.3     1  UNL1        0.2556
     20 O         141.2965  142.9403  170.7193 O.3     1  UNL1       -0.4444
     21 O         138.2557  140.7274  158.2672 O.3     1  UNL1       -0.4790
     22 C         138.9829  142.0180  158.0319 C.ar    1  UNL1        0.1392
     23 C         139.4651  142.3670  156.6550 C.ar    1  UNL1        0.0367
     24 C         140.1923  143.6577  156.4197 C.ar    1  UNL1        0.0021
     25 C         140.4372  144.5995  157.5613 C.ar    1  UNL1        0.0177
     26 C         139.9550  144.2505  158.9381 C.ar    1  UNL1        0.0590
     27 CL        140.1998  145.1922  160.0797 Cl      1  UNL1       -0.0824
     28 C         139.2278  142.9598  159.1734 C.ar    1  UNL1        0.0480
     29 C         141.1643  145.8901  157.3260 C.3     1  UNL1        0.1644
     30 O         142.5888  146.0404  157.7711 O.3     1  UNL1       -0.3772
     31 H         142.6304  146.0049  158.7396 H       1  UNL1        0.2109
@<TRIPOS>BOND
     1    19    20    1
     2    20    17    1
     3    17    18    2
     4    17    16    1
     5    16    15    1
     6    15    14    1
     7    14     8    1
     8     8     9    1
     9     9    10    1
    10    10    11    1
    11    11     7    1
    12     7     1    1
    13     1     2    1
    14     2     3    1
    15     3     4    1
    16     4    21    1
    17    21    22    1
    18    22    23   ar
    19    23    24   ar
    20    24    25   ar
    21    25    29    1
    22    29    30    1
    23    25    26   ar
    24    26    27    1
    25    26    28   ar
    26     4     5    1
    27     5     6    1
    28    11    12    1
    29    12    13    1
    30    13     8    1
    31     6     1    1
    32    28    22   ar
    33    30    31    1
@<TRIPOS>MOLECULE
*****
 31 33 0 0 0
SMALL
GASTEIGER

@<TRIPOS>ATOM
      1 N         140.2685  138.7530  162.3081 N.3     1  UNL1       -0.2724
      2 C         140.1170  137.5986  163.2540 C.3     1  UNL1        0.0758
      3 C         140.7675  137.6455  164.6047 C.3     1  UNL1        0.0609
      4 C         141.5696  138.8466  165.0097 C.3     1  UNL1        0.1687
      5 C         141.7211  140.0009  164.0639 C.3     1  UNL1        0.0609
      6 C         141.0705  139.9542  162.7131 C.3     1  UNL1        0.0758
      7 C         139.6179  138.7062  160.9574 C.3     1  UNL1        0.0721
      8 N         142.0899  137.8406  157.2981 N.3     1  UNL1       -0.2727
      9 C         142.7140  137.7648  158.6600 C.3     1  UNL1        0.0721
     10 C         141.8900  138.0533  159.8797 C.3     1  UNL1        0.0188
     11 C         140.4419  138.4177  159.7376 C.3     1  UNL1        0.0188
     12 C         139.8178  138.4935  158.3758 C.3     1  UNL1        0.0188
     13 C         140.6418  138.2049  157.1560 C.3     1  UNL1        0.0721
     14 C         142.9139  137.5520  156.0784 C.3     1  UNL1        0.0727
     15 C         143.8054  136.3462  156.0436 C.3     1  UNL1        0.0290
     16 C         143.2327  134.9994  155.7146 C.3     1  UNL1        0.1110
     17 C         142.9905  134.0003  156.8070 C.2     1  UNL1        0.3171
     18 O         143.5274  134.2507  158.1850 O.2     1  UNL1       -0.2501
     19 C         141.3533  132.6660  155.2939 C.3     1  UNL1        0.2556
     20 O         142.2115  132.7507  156.5213 O.3     1  UNL1       -0.4444
     21 O         142.2202  138.8933  166.3605 O.3     1  UNL1       -0.4790
     22 C         141.8507  139.9731  167.3339 C.ar    1  UNL1        0.1392
     23 C         142.7359  141.1735  167.4940 C.ar    1  UNL1        0.0367
     24 C         142.3664  142.2533  168.4674 C.ar    1  UNL1        0.0021
     25 C         141.1118  142.1327  169.2807 C.ar    1  UNL1        0.0177
     26 C         140.2266  140.9324  169.1206 C.ar    1  UNL1        0.0590
     27 CL        138.9721  140.8118  169.9339 Cl      1  UNL1       -0.0824
     28 C         140.5961  139.8525  168.1471 C.ar    1  UNL1        0.0480
     29 C         140.7424  143.2125  170.2541 C.3     1  UNL1        0.1644
     30 O         140.0075  144.4309  169.7794 O.3     1  UNL1       -0.3772
     31 H         140.5771  144.9395  169.1813 H       1  UNL1        0.2109
@<TRIPOS>BOND
     1    19    20    1
     2    20    17    1
     3    17    18    2
     4    17    16    1
     5    16    15    1
     6    15    14    1
     7    14     8    1
     8     8     9    1
     9     9    10    1
    10    10    11    1
    11    11     7    1
    12     7     1    1
    13     1     2    1
    14     2     3    1
    15     3     4    1
    16     4    21    1
    17    21    22    1
    18    22    23   ar
    19    23    24   ar
    20    24    25   ar
    21    25    29    1
    22    29    30    1
    23    25    26   ar
    24    26    27    1
    25    26    28   ar
    26     4     5    1
    27     5     6    1
    28    11    12    1
    29    12    13    1
    30    13     8    1
    31     6     1    1
    32    28    22   ar
    33    30    31    1
@<TRIPOS>MOLECULE
*****
 31 33 0 0 0
SMALL
GASTEIGER

@<TRIPOS>ATOM
      1 N         140.7525  138.2114  161.3414 N.3     1  UNL1       -0.2724
      2 C         140.1555  138.5980  160.0207 C.3     1  UNL1        0.0758
      3 C         140.9769  138.5013  158.7693 C.3     1  UNL1        0.0609
      4 C         142.3952  138.0180  158.8386 C.3     1  UNL1        0.1687
      5 C         142.9922  137.6315  160.1592 C.3     1  UNL1        0.0609
      6 C         142.1708  137.7281  161.4107 C.3     1  UNL1        0.0758
      7 C         139.9311  138.3081  162.5928 C.3     1  UNL1        0.0721
      8 N         139.5457  142.2481  164.7324 N.3     1  UNL1       -0.2727
      9 C         140.8961  141.7577  164.3013 C.3     1  UNL1        0.0721
     10 C         141.0246  140.4444  163.5881 C.3     1  UNL1        0.0188
     11 C         139.8027  139.6214  163.3060 C.3     1  UNL1        0.0188
     12 C         138.4523  140.1118  163.7371 C.3     1  UNL1        0.0188
     13 C         138.3238  141.4252  164.4503 C.3     1  UNL1        0.0721
     14 C         139.4172  143.5614  165.4456 C.3     1  UNL1        0.0727
     15 C         138.7703  144.7276  164.7590 C.3     1  UNL1        0.0290
     16 C         138.6994  144.7712  163.2613 C.3     1  UNL1        0.1110
     17 C         139.6738  145.6098  162.4884 C.2     1  UNL1        0.3171
     18 O         139.1980  146.4387  161.3323 O.2     1  UNL1       -0.2501
     19 C         142.0552  144.5867  162.3097 C.3     1  UNL1        0.2556
     20 O         141.1240  145.6196  162.8717 O.3     1  UNL1       -0.4444
     21 O         143.2166  137.9213  157.5871 O.3     1  UNL1       -0.4790
     22 C         142.9964  136.7865  156.6313 C.ar    1  UNL1        0.1392
     23 C         142.7761  137.0653  155.1740 C.ar    1  UNL1        0.0367
     24 C         142.5559  135.9305  154.2182 C.ar    1  UNL1        0.0021
     25 C         142.5559  134.5168  154.7196 C.ar    1  UNL1        0.0177
     26 C         142.7762  134.2379  156.1769 C.ar    1  UNL1        0.0590
     27 CL        142.7762  132.8243  156.6784 Cl      1  UNL1       -0.0824
     28 C         142.9964  135.3729  157.1328 C.ar    1  UNL1        0.0480
     29 C         142.3357  133.3820  153.7638 C.3     1  UNL1        0.1644
     30 O         141.0601  133.2991  152.9791 O.3     1  UNL1       -0.3772
     31 H         140.3173  133.1479  153.5844 H       1  UNL1        0.2109
@<TRIPOS>BOND
     1    19    20    1
     2    20    17    1
     3    17    18    2
     4    17    16    1
     5    16    15    1
     6    15    14    1
     7    14     8    1
     8     8     9    1
     9     9    10    1
    10    10    11    1
    11    11     7    1
    12     7     1    1
    13     1     2    1
    14     2     3    1
    15     3     4    1
    16     4    21    1
    17    21    22    1
    18    22    23   ar
    19    23    24   ar
    20    24    25   ar
    21    25    29    1
    22    29    30    1
    23    25    26   ar
    24    26    27    1
    25    26    28   ar
    26     4     5    1
    27     5     6    1
    28    11    12    1
    29    12    13    1
    30    13     8    1
    31     6     1    1
    32    28    22   ar
    33    30    31    1
