@<TRIPOS>MOLECULE
*****
 29 32 0 0 0
SMALL
GASTEIGER

@<TRIPOS>ATOM
      1 C         137.2996  138.0459  167.2846 C.3     1  UNL1        0.0420
      2 C         138.2263  139.1226  166.8027 C.3     1  UNL1        0.1912
      3 O         138.2913  139.4577  165.3421 O.3     1  UNL1       -0.3500
      4 C         139.2180  140.5344  164.8602 C.3     1  UNL1        0.1145
      5 C         140.1446  141.6110  164.3783 C.3     1  UNL1        0.0463
      6 C         140.2096  141.9462  162.9177 C.3     1  UNL1        0.0746
      7 N         139.3481  141.2047  161.9390 N.3     1  UNL1       -0.2722
      8 C         138.4214  140.1281  162.4209 C.3     1  UNL1        0.0746
      9 C         138.3564  139.7929  163.8814 C.3     1  UNL1        0.0463
     10 C         140.0795  141.2759  165.8389 C.3     1  UNL1        0.1254
     11 N         140.0144  140.9407  167.2996 N.am    1  UNL1       -0.2543
     12 C         139.0878  139.8640  167.7815 C.2     1  UNL1        0.2566
     13 O         139.0227  139.5288  169.2421 O.2     1  UNL1       -0.2719
     14 C         140.8760  141.6821  168.2783 C.ar    1  UNL1        0.0540
     15 C         140.3215  142.8597  169.0238 C.ar    1  UNL1        0.0149
     16 C         141.1831  143.6012  170.0025 C.ar    1  UNL1        0.0013
     17 C         142.5991  143.1650  170.2358 C.ar    1  UNL1        0.0001
     18 C         143.1537  141.9874  169.4904 C.ar    1  UNL1        0.0013
     19 C         142.2921  141.2459  168.5116 C.ar    1  UNL1        0.0149
     20 C         139.4131  141.5399  160.4783 C.3     1  UNL1        0.0768
     21 C         140.3399  140.7813  159.5753 C.3     1  UNL1        0.0437
     22 C         141.5255  140.0636  160.1492 C.ar    1  UNL1       -0.0201
     23 C         141.6589  138.5794  159.9780 C.ar    1  UNL1       -0.0042
     24 C         142.8444  137.8618  160.5519 C.ar    1  UNL1        0.0004
     25 C         143.8967  138.6283  161.2970 C.ar    1  UNL1        0.0103
     26 C         143.7633  140.1125  161.4682 C.ar    1  UNL1        0.0681
     27 C         142.5778  140.8301  160.8943 C.ar    1  UNL1        0.0061
     28 C         144.8156  140.8791  162.2133 C.1     1  UNL1        0.1004
     29 N         145.8678  141.6456  162.9584 N.1     1  UNL1       -0.1908
@<TRIPOS>BOND
     1     1     2    1
     2     2     3    1
     3     3     4    1
     4     4     5    1
     5     5     6    1
     6     6     7    1
     7     7    20    1
     8    20    21    1
     9    21    22    1
    10    22    23   ar
    11    23    24   ar
    12    24    25   ar
    13    25    26   ar
    14    26    28    1
    15    28    29    3
    16    26    27   ar
    17     7     8    1
    18     8     9    1
    19     4    10    1
    20    10    11    1
    21    11    14    1
    22    14    15   ar
    23    15    16   ar
    24    16    17   ar
    25    17    18   ar
    26    18    19   ar
    27    11    12   am
    28    12    13    2
    29    12     2    1
    30     9     4    1
    31    19    14   ar
    32    27    22   ar
@<TRIPOS>MOLECULE
*****
 29 32 0 0 0
SMALL
GASTEIGER

@<TRIPOS>ATOM
      1 C         143.8372  138.0128  166.3072 C.3     1  UNL1        0.0420
      2 C         142.5415  138.7659  166.2417 C.3     1  UNL1        0.1912
      3 O         141.6441  138.6120  165.0497 O.3     1  UNL1       -0.3500
      4 C         140.3484  139.3651  164.9842 C.3     1  UNL1        0.1145
      5 C         139.0528  140.1181  164.9188 C.3     1  UNL1        0.0463
      6 C         138.1553  139.9642  163.7268 C.3     1  UNL1        0.0746
      7 N         138.5535  139.0573  162.6003 N.3     1  UNL1       -0.2722
      8 C         139.8491  138.3043  162.6657 C.3     1  UNL1        0.0746
      9 C         140.7465  138.4582  163.8577 C.3     1  UNL1        0.0463
     10 C         139.9503  140.2719  166.1107 C.3     1  UNL1        0.1254
     11 N         140.8478  140.4258  167.3027 N.am    1  UNL1       -0.2543
     12 C         142.1434  139.6728  167.3682 C.2     1  UNL1        0.2566
     13 O         143.0410  139.8266  168.5602 O.2     1  UNL1       -0.2719
     14 C         140.4497  141.3327  168.4293 C.ar    1  UNL1        0.0540
     15 C         139.6292  140.8003  169.5665 C.ar    1  UNL1        0.0149
     16 C         139.2311  141.7072  170.6930 C.ar    1  UNL1        0.0013
     17 C         139.6534  143.1464  170.6823 C.ar    1  UNL1        0.0001
     18 C         140.4739  143.6789  169.5450 C.ar    1  UNL1        0.0013
     19 C         140.8720  142.7720  168.4185 C.ar    1  UNL1        0.0149
     20 C         137.6559  138.9035  161.4083 C.3     1  UNL1        0.0768
     21 C         137.6465  139.9525  160.3361 C.3     1  UNL1        0.0437
     22 C         138.7893  140.9174  160.2208 C.ar    1  UNL1       -0.0201
     23 C         140.0807  140.4792  159.5963 C.ar    1  UNL1       -0.0042
     24 C         141.2234  141.4441  159.4810 C.ar    1  UNL1        0.0004
     25 C         141.0746  142.8471  159.9903 C.ar    1  UNL1        0.0103
     26 C         139.7831  143.2853  160.6148 C.ar    1  UNL1        0.0681
     27 C         138.6405  142.3204  160.7301 C.ar    1  UNL1        0.0061
     28 C         139.6343  144.6883  161.1241 C.1     1  UNL1        0.1004
     29 N         139.4855  146.0913  161.6334 N.1     1  UNL1       -0.1908
@<TRIPOS>BOND
     1     1     2    1
     2     2     3    1
     3     3     4    1
     4     4     5    1
     5     5     6    1
     6     6     7    1
     7     7    20    1
     8    20    21    1
     9    21    22    1
    10    22    23   ar
    11    23    24   ar
    12    24    25   ar
    13    25    26   ar
    14    26    28    1
    15    28    29    3
    16    26    27   ar
    17     7     8    1
    18     8     9    1
    19     4    10    1
    20    10    11    1
    21    11    14    1
    22    14    15   ar
    23    15    16   ar
    24    16    17   ar
    25    17    18   ar
    26    18    19   ar
    27    11    12   am
    28    12    13    2
    29    12     2    1
    30     9     4    1
    31    19    14   ar
    32    27    22   ar
@<TRIPOS>MOLECULE
*****
 29 32 0 0 0
SMALL
GASTEIGER

@<TRIPOS>ATOM
      1 C         138.1233  142.4518  158.5726 C.3     1  UNL1        0.0420
      2 C         138.6600  141.1346  159.0492 C.3     1  UNL1        0.1912
      3 O         138.5059  140.7380  160.4875 O.3     1  UNL1       -0.3500
      4 C         139.0426  139.4208  160.9640 C.3     1  UNL1        0.1145
      5 C         139.5793  138.1037  161.4405 C.3     1  UNL1        0.0463
      6 C         139.4252  137.7071  162.8788 C.3     1  UNL1        0.0746
      7 N         138.7343  138.6276  163.8408 N.3     1  UNL1       -0.2722
      8 C         138.1976  139.9448  163.3643 C.3     1  UNL1        0.0746
      9 C         138.3518  140.3414  161.9260 C.3     1  UNL1        0.0463
     10 C         139.7335  138.5002  160.0021 C.3     1  UNL1        0.1254
     11 N         139.8876  138.8969  158.5637 N.am    1  UNL1       -0.2543
     12 C         139.3509  140.2140  158.0872 C.2     1  UNL1        0.2566
     13 O         139.5050  140.6106  156.6488 O.2     1  UNL1       -0.2719
     14 C         140.5785  137.9763  157.6018 C.ar    1  UNL1        0.0540
     15 C         142.0553  137.7410  157.7181 C.ar    1  UNL1        0.0149
     16 C         142.7461  136.8204  156.7562 C.ar    1  UNL1        0.0013
     17 C         141.9602  136.1352  155.6780 C.ar    1  UNL1        0.0001
     18 C         140.4833  136.3704  155.5616 C.ar    1  UNL1        0.0013
     19 C         139.7924  137.2910  156.5235 C.ar    1  UNL1        0.0149
     20 C         138.5802  138.2310  165.2792 C.3     1  UNL1        0.0768
     21 C         138.4897  139.2853  166.3423 C.3     1  UNL1        0.0437
     22 C         139.7215  139.7068  167.0874 C.ar    1  UNL1       -0.0201
     23 C         141.0751  139.5054  166.4734 C.ar    1  UNL1       -0.0042
     24 C         142.3068  139.9269  167.2185 C.ar    1  UNL1        0.0004
     25 C         142.1849  140.5498  168.5776 C.ar    1  UNL1        0.0103
     26 C         140.8313  140.7512  169.1916 C.ar    1  UNL1        0.0681
     27 C         139.5996  140.3297  168.4465 C.ar    1  UNL1        0.0061
     28 C         140.7093  141.3741  170.5507 C.1     1  UNL1        0.1004
     29 N         140.5874  141.9970  171.9098 N.1     1  UNL1       -0.1908
@<TRIPOS>BOND
     1     1     2    1
     2     2     3    1
     3     3     4    1
     4     4     5    1
     5     5     6    1
     6     6     7    1
     7     7    20    1
     8    20    21    1
     9    21    22    1
    10    22    23   ar
    11    23    24   ar
    12    24    25   ar
    13    25    26   ar
    14    26    28    1
    15    28    29    3
    16    26    27   ar
    17     7     8    1
    18     8     9    1
    19     4    10    1
    20    10    11    1
    21    11    14    1
    22    14    15   ar
    23    15    16   ar
    24    16    17   ar
    25    17    18   ar
    26    18    19   ar
    27    11    12   am
    28    12    13    2
    29    12     2    1
    30     9     4    1
    31    19    14   ar
    32    27    22   ar
@<TRIPOS>MOLECULE
*****
 29 32 0 0 0
SMALL
GASTEIGER

@<TRIPOS>ATOM
      1 C         138.4123  138.9229  165.3594 C.3     1  UNL1        0.0420
      2 C         139.1721  140.2155  165.4065 C.3     1  UNL1        0.1912
      3 O         139.2263  141.0982  164.1950 O.3     1  UNL1       -0.3500
      4 C         139.9861  142.3908  164.2422 C.3     1  UNL1        0.1145
      5 C         140.7458  143.6832  164.2894 C.3     1  UNL1        0.0463
      6 C         140.8000  144.5660  163.0778 C.3     1  UNL1        0.0746
      7 N         140.0945  144.1562  161.8191 N.3     1  UNL1       -0.2722
      8 C         139.3348  142.8637  161.7719 C.3     1  UNL1        0.0746
      9 C         139.2806  141.9810  162.9834 C.3     1  UNL1        0.0463
     10 C         140.6915  142.8005  165.5009 C.3     1  UNL1        0.1254
     11 N         140.6373  141.9177  166.7125 N.am    1  UNL1       -0.2543
     12 C         139.8776  140.6253  166.6653 C.2     1  UNL1        0.2566
     13 O         139.8233  139.7425  167.8768 O.2     1  UNL1       -0.2719
     14 C         141.3428  142.3275  167.9712 C.ar    1  UNL1        0.0540
     15 C         140.6278  143.1581  168.9953 C.ar    1  UNL1        0.0149
     16 C         141.3333  143.5679  170.2540 C.ar    1  UNL1        0.0013
     17 C         142.7537  143.1471  170.4886 C.ar    1  UNL1        0.0001
     18 C         143.4688  142.3164  169.4645 C.ar    1  UNL1        0.0013
     19 C         142.7633  141.9066  168.2058 C.ar    1  UNL1        0.0149
     20 C         140.1488  145.0390  160.6076 C.3     1  UNL1        0.0768
     21 C         141.3350  144.9828  159.6912 C.3     1  UNL1        0.0437
     22 C         142.1901  143.7512  159.6458 C.ar    1  UNL1       -0.0201
     23 C         142.1026  142.8202  158.4730 C.ar    1  UNL1       -0.0042
     24 C         142.9576  141.5886  158.4277 C.ar    1  UNL1        0.0004
     25 C         143.9002  141.2881  159.5552 C.ar    1  UNL1        0.0103
     26 C         143.9877  142.2191  160.7280 C.ar    1  UNL1        0.0681
     27 C         143.1326  143.4506  160.7733 C.ar    1  UNL1        0.0061
     28 C         144.9302  141.9185  161.8555 C.1     1  UNL1        0.1004
     29 N         145.8727  141.6179  162.9830 N.1     1  UNL1       -0.1908
@<TRIPOS>BOND
     1     1     2    1
     2     2     3    1
     3     3     4    1
     4     4     5    1
     5     5     6    1
     6     6     7    1
     7     7    20    1
     8    20    21    1
     9    21    22    1
    10    22    23   ar
    11    23    24   ar
    12    24    25   ar
    13    25    26   ar
    14    26    28    1
    15    28    29    3
    16    26    27   ar
    17     7     8    1
    18     8     9    1
    19     4    10    1
    20    10    11    1
    21    11    14    1
    22    14    15   ar
    23    15    16   ar
    24    16    17   ar
    25    17    18   ar
    26    18    19   ar
    27    11    12   am
    28    12    13    2
    29    12     2    1
    30     9     4    1
    31    19    14   ar
    32    27    22   ar
@<TRIPOS>MOLECULE
*****
 29 32 0 0 0
SMALL
GASTEIGER

@<TRIPOS>ATOM
      1 C         138.4673  139.1493  164.9029 C.3     1  UNL1        0.0420
      2 C         139.2294  140.4337  165.0432 C.3     1  UNL1        0.1912
      3 O         139.3225  141.3810  163.8839 O.3     1  UNL1       -0.3500
      4 C         140.0846  142.6654  164.0241 C.3     1  UNL1        0.1145
      5 C         140.8466  143.9497  164.1644 C.3     1  UNL1        0.0463
      6 C         140.9397  144.8970  163.0051 C.3     1  UNL1        0.0746
      7 N         140.2706  144.5600  161.7056 N.3     1  UNL1       -0.2722
      8 C         139.5086  143.2757  161.5653 C.3     1  UNL1        0.0746
      9 C         139.4155  142.3284  162.7246 C.3     1  UNL1        0.0463
     10 C         140.7536  143.0024  165.3236 C.3     1  UNL1        0.1254
     11 N         140.6605  142.0551  166.4830 N.am    1  UNL1       -0.2543
     12 C         139.8985  140.7708  166.3427 C.2     1  UNL1        0.2566
     13 O         139.8054  139.8234  167.5020 O.2     1  UNL1       -0.2719
     14 C         141.3296  142.3921  167.7825 C.ar    1  UNL1        0.0540
     15 C         142.7561  141.9925  168.0174 C.ar    1  UNL1        0.0149
     16 C         143.4252  142.3295  169.3169 C.ar    1  UNL1        0.0013
     17 C         142.6677  143.0662  170.3815 C.ar    1  UNL1        0.0001
     18 C         141.2411  143.4659  170.1467 C.ar    1  UNL1        0.0013
     19 C         140.5720  143.1288  168.8471 C.ar    1  UNL1        0.0149
     20 C         140.3637  145.5073  160.5463 C.3     1  UNL1        0.0768
     21 C         141.0482  145.0802  159.2818 C.3     1  UNL1        0.0437
     22 C         140.3003  145.0969  157.9816 C.ar    1  UNL1       -0.0201
     23 C         139.5548  143.8763  157.5294 C.ar    1  UNL1       -0.0042
     24 C         138.8070  143.8931  156.2293 C.ar    1  UNL1        0.0004
     25 C         138.8045  145.1304  155.3813 C.ar    1  UNL1        0.0103
     26 C         139.5499  146.3510  155.8335 C.ar    1  UNL1        0.0681
     27 C         140.2978  146.3342  157.1336 C.ar    1  UNL1        0.0061
     28 C         139.5475  147.5883  154.9855 C.1     1  UNL1        0.1004
     29 N         139.5451  148.8256  154.1375 N.1     1  UNL1       -0.1908
@<TRIPOS>BOND
     1     1     2    1
     2     2     3    1
     3     3     4    1
     4     4     5    1
     5     5     6    1
     6     6     7    1
     7     7    20    1
     8    20    21    1
     9    21    22    1
    10    22    23   ar
    11    23    24   ar
    12    24    25   ar
    13    25    26   ar
    14    26    28    1
    15    28    29    3
    16    26    27   ar
    17     7     8    1
    18     8     9    1
    19     4    10    1
    20    10    11    1
    21    11    14    1
    22    14    15   ar
    23    15    16   ar
    24    16    17   ar
    25    17    18   ar
    26    18    19   ar
    27    11    12   am
    28    12    13    2
    29    12     2    1
    30     9     4    1
    31    19    14   ar
    32    27    22   ar
@<TRIPOS>MOLECULE
*****
 29 32 0 0 0
SMALL
GASTEIGER

@<TRIPOS>ATOM
      1 C         139.7214  146.2541  161.6680 C.3     1  UNL1        0.0420
      2 C         140.1588  144.8314  161.4812 C.3     1  UNL1        0.1912
      3 O         139.6416  143.7614  162.3963 O.3     1  UNL1       -0.3500
      4 C         140.0790  142.3388  162.2094 C.3     1  UNL1        0.1145
      5 C         140.5164  140.9162  162.0225 C.3     1  UNL1        0.0463
      6 C         139.9993  139.8462  162.9376 C.3     1  UNL1        0.0746
      7 N         139.0447  140.1987  164.0397 N.3     1  UNL1       -0.2722
      8 C         138.6073  141.6212  164.2266 C.3     1  UNL1        0.0746
      9 C         139.1244  142.6913  163.3114 C.3     1  UNL1        0.0463
     10 C         141.0336  141.9862  161.1074 C.3     1  UNL1        0.1254
     11 N         141.5508  143.0564  160.1922 N.am    1  UNL1       -0.2543
     12 C         141.1134  144.4789  160.3791 C.2     1  UNL1        0.2566
     13 O         141.6306  145.5490  159.4640 O.2     1  UNL1       -0.2719
     14 C         142.5054  142.7038  159.0902 C.ar    1  UNL1        0.0540
     15 C         143.9847  142.7736  159.3284 C.ar    1  UNL1        0.0149
     16 C         144.9393  142.4211  158.2264 C.ar    1  UNL1        0.0013
     17 C         144.4146  141.9988  156.8861 C.ar    1  UNL1        0.0001
     18 C         142.9352  141.9290  156.6478 C.ar    1  UNL1        0.0013
     19 C         141.9806  142.2815  157.7499 C.ar    1  UNL1        0.0149
     20 C         138.5275  139.1286  164.9548 C.3     1  UNL1        0.0768
     21 C         138.4628  139.3729  166.4333 C.3     1  UNL1        0.0437
     22 C         139.7084  139.7275  167.1902 C.ar    1  UNL1       -0.0201
     23 C         141.0550  139.4471  166.5918 C.ar    1  UNL1       -0.0042
     24 C         142.3006  139.8017  167.3486 C.ar    1  UNL1        0.0004
     25 C         142.1996  140.4366  168.7038 C.ar    1  UNL1        0.0103
     26 C         140.8530  140.7170  169.3022 C.ar    1  UNL1        0.0681
     27 C         139.6075  140.3624  168.5454 C.ar    1  UNL1        0.0061
     28 C         140.7520  141.3519  170.6575 C.1     1  UNL1        0.1004
     29 N         140.6510  141.9868  172.0127 N.1     1  UNL1       -0.1908
@<TRIPOS>BOND
     1     1     2    1
     2     2     3    1
     3     3     4    1
     4     4     5    1
     5     5     6    1
     6     6     7    1
     7     7    20    1
     8    20    21    1
     9    21    22    1
    10    22    23   ar
    11    23    24   ar
    12    24    25   ar
    13    25    26   ar
    14    26    28    1
    15    28    29    3
    16    26    27   ar
    17     7     8    1
    18     8     9    1
    19     4    10    1
    20    10    11    1
    21    11    14    1
    22    14    15   ar
    23    15    16   ar
    24    16    17   ar
    25    17    18   ar
    26    18    19   ar
    27    11    12   am
    28    12    13    2
    29    12     2    1
    30     9     4    1
    31    19    14   ar
    32    27    22   ar
@<TRIPOS>MOLECULE
*****
 29 32 0 0 0
SMALL
GASTEIGER

@<TRIPOS>ATOM
      1 C         137.3558  138.1126  167.1436 C.3     1  UNL1        0.0420
      2 C         138.4021  139.0841  166.6838 C.3     1  UNL1        0.1912
      3 O         138.6192  139.3144  165.2176 O.3     1  UNL1       -0.3500
      4 C         139.6655  140.2859  164.7577 C.3     1  UNL1        0.1145
      5 C         140.7118  141.2574  164.2979 C.3     1  UNL1        0.0463
      6 C         140.9288  141.4876  162.8317 C.3     1  UNL1        0.0746
      7 N         140.0996  140.7464  161.8253 N.3     1  UNL1       -0.2722
      8 C         139.0533  139.7749  162.2851 C.3     1  UNL1        0.0746
      9 C         138.8362  139.5447  163.7513 C.3     1  UNL1        0.0463
     10 C         140.4947  141.0271  165.7641 C.3     1  UNL1        0.1254
     11 N         140.2777  140.7968  167.2304 N.am    1  UNL1       -0.2543
     12 C         139.2314  139.8253  167.6902 C.2     1  UNL1        0.2566
     13 O         139.0143  139.5950  169.1565 O.2     1  UNL1       -0.2719
     14 C         141.1069  141.5381  168.2369 C.ar    1  UNL1        0.0540
     15 C         142.4979  141.0730  168.5510 C.ar    1  UNL1        0.0149
     16 C         143.3272  141.8143  169.5575 C.ar    1  UNL1        0.0013
     17 C         142.7654  143.0205  170.2497 C.ar    1  UNL1        0.0001
     18 C         141.3743  143.4856  169.9356 C.ar    1  UNL1        0.0013
     19 C         140.5451  142.7444  168.9292 C.ar    1  UNL1        0.0149
     20 C         140.3167  140.9767  160.3590 C.3     1  UNL1        0.0768
     21 C         139.6400  142.1257  159.6720 C.3     1  UNL1        0.0437
     22 C         140.4575  143.1491  158.9409 C.ar    1  UNL1       -0.0201
     23 C         141.9551  143.0685  158.9638 C.ar    1  UNL1       -0.0042
     24 C         142.7725  144.0919  158.2327 C.ar    1  UNL1        0.0004
     25 C         142.0922  145.1959  157.4788 C.ar    1  UNL1        0.0103
     26 C         140.5946  145.2765  157.4560 C.ar    1  UNL1        0.0681
     27 C         139.7772  144.2531  158.1870 C.ar    1  UNL1        0.0061
     28 C         139.9143  146.3806  156.7021 C.1     1  UNL1        0.1004
     29 N         139.2341  147.4846  155.9482 N.1     1  UNL1       -0.1908
@<TRIPOS>BOND
     1     1     2    1
     2     2     3    1
     3     3     4    1
     4     4     5    1
     5     5     6    1
     6     6     7    1
     7     7    20    1
     8    20    21    1
     9    21    22    1
    10    22    23   ar
    11    23    24   ar
    12    24    25   ar
    13    25    26   ar
    14    26    28    1
    15    28    29    3
    16    26    27   ar
    17     7     8    1
    18     8     9    1
    19     4    10    1
    20    10    11    1
    21    11    14    1
    22    14    15   ar
    23    15    16   ar
    24    16    17   ar
    25    17    18   ar
    26    18    19   ar
    27    11    12   am
    28    12    13    2
    29    12     2    1
    30     9     4    1
    31    19    14   ar
    32    27    22   ar
@<TRIPOS>MOLECULE
*****
 29 32 0 0 0
SMALL
GASTEIGER

@<TRIPOS>ATOM
      1 C         137.4541  138.1044  167.0292 C.3     1  UNL1        0.0420
      2 C         138.8037  138.6883  166.7332 C.3     1  UNL1        0.1912
      3 O         139.5083  138.3390  165.4559 O.3     1  UNL1       -0.3500
      4 C         140.8580  138.9229  165.1600 C.3     1  UNL1        0.1145
      5 C         142.2076  139.5068  164.8641 C.3     1  UNL1        0.0463
      6 C         142.9122  139.1575  163.5868 C.3     1  UNL1        0.0746
      7 N         142.2672  138.2243  162.6054 N.3     1  UNL1       -0.2722
      8 C         140.9176  137.6404  162.9013 C.3     1  UNL1        0.0746
      9 C         140.2130  137.9897  164.1786 C.3     1  UNL1        0.0463
     10 C         141.5030  139.8561  166.1414 C.3     1  UNL1        0.1254
     11 N         140.7983  140.2054  167.4187 N.am    1  UNL1       -0.2543
     12 C         139.4487  139.6215  167.7146 C.2     1  UNL1        0.2566
     13 O         138.7440  139.9708  168.9919 O.2     1  UNL1       -0.2719
     14 C         141.4433  141.1386  168.4001 C.ar    1  UNL1        0.0540
     15 C         140.7395  142.3976  168.8118 C.ar    1  UNL1        0.0149
     16 C         141.3845  143.3308  169.7932 C.ar    1  UNL1        0.0013
     17 C         142.7333  143.0050  170.3628 C.ar    1  UNL1        0.0001
     18 C         143.4372  141.7459  169.9511 C.ar    1  UNL1        0.0013
     19 C         142.7922  140.8127  168.9697 C.ar    1  UNL1        0.0149
     20 C         142.9719  137.8750  161.3281 C.3     1  UNL1        0.0768
     21 C         142.7067  138.6695  160.0838 C.3     1  UNL1        0.0437
     22 C         142.4585  140.1461  160.1753 C.ar    1  UNL1       -0.0201
     23 C         143.5927  141.1101  159.9904 C.ar    1  UNL1       -0.0042
     24 C         143.3444  142.5866  160.0819 C.ar    1  UNL1        0.0004
     25 C         141.9621  143.0989  160.3585 C.ar    1  UNL1        0.0103
     26 C         140.8279  142.1349  160.5435 C.ar    1  UNL1        0.0681
     27 C         141.0761  140.6584  160.4519 C.ar    1  UNL1        0.0061
     28 C         139.4455  142.6473  160.8200 C.1     1  UNL1        0.1004
     29 N         138.0632  143.1597  161.0966 N.1     1  UNL1       -0.1908
@<TRIPOS>BOND
     1     1     2    1
     2     2     3    1
     3     3     4    1
     4     4     5    1
     5     5     6    1
     6     6     7    1
     7     7    20    1
     8    20    21    1
     9    21    22    1
    10    22    23   ar
    11    23    24   ar
    12    24    25   ar
    13    25    26   ar
    14    26    28    1
    15    28    29    3
    16    26    27   ar
    17     7     8    1
    18     8     9    1
    19     4    10    1
    20    10    11    1
    21    11    14    1
    22    14    15   ar
    23    15    16   ar
    24    16    17   ar
    25    17    18   ar
    26    18    19   ar
    27    11    12   am
    28    12    13    2
    29    12     2    1
    30     9     4    1
    31    19    14   ar
    32    27    22   ar
@<TRIPOS>MOLECULE
*****
 29 32 0 0 0
SMALL
GASTEIGER

@<TRIPOS>ATOM
      1 C         143.3589  138.4011  165.9728 C.3     1  UNL1        0.0420
      2 C         142.6493  139.0685  164.8320 C.3     1  UNL1        0.1912
      3 O         142.8711  138.5899  163.4279 O.3     1  UNL1       -0.3500
      4 C         142.1616  139.2572  162.2871 C.3     1  UNL1        0.1145
      5 C         141.4520  139.9246  161.1465 C.3     1  UNL1        0.0463
      6 C         141.6738  139.4460  159.7423 C.3     1  UNL1        0.0746
      7 N         142.6052  138.3001  159.4788 N.3     1  UNL1       -0.2722
      8 C         143.3147  137.6327  160.6194 C.3     1  UNL1        0.0746
      9 C         143.0929  138.1113  162.0236 C.3     1  UNL1        0.0463
     10 C         141.2302  140.4031  162.5506 C.3     1  UNL1        0.1254
     11 N         141.0084  140.8817  163.9549 N.am    1  UNL1       -0.2543
     12 C         141.7180  140.2144  165.0955 C.2     1  UNL1        0.2566
     13 O         141.4962  140.6929  166.4998 O.2     1  UNL1       -0.2719
     14 C         140.0770  142.0276  164.2184 C.ar    1  UNL1        0.0540
     15 C         140.6248  143.4113  164.4065 C.ar    1  UNL1        0.0149
     16 C         139.6934  144.5572  164.6700 C.ar    1  UNL1        0.0013
     17 C         138.2143  144.3195  164.7454 C.ar    1  UNL1        0.0001
     18 C         137.6665  142.9357  164.5573 C.ar    1  UNL1        0.0013
     19 C         138.5979  141.7898  164.2938 C.ar    1  UNL1        0.0149
     20 C         142.8270  137.8215  158.0745 C.3     1  UNL1        0.0768
     21 C         141.6700  137.3225  157.2607 C.3     1  UNL1        0.0437
     22 C         141.8508  136.1537  156.3380 C.ar    1  UNL1       -0.0201
     23 C         140.9766  136.0116  155.1274 C.ar    1  UNL1       -0.0042
     24 C         141.1574  134.8429  154.2048 C.ar    1  UNL1        0.0004
     25 C         142.2123  133.8162  154.4927 C.ar    1  UNL1        0.0103
     26 C         143.0865  133.9582  155.7033 C.ar    1  UNL1        0.0681
     27 C         142.9057  135.1270  156.6260 C.ar    1  UNL1        0.0061
     28 C         144.1415  132.9315  155.9913 C.1     1  UNL1        0.1004
     29 N         145.1965  131.9048  156.2793 N.1     1  UNL1       -0.1908
@<TRIPOS>BOND
     1     1     2    1
     2     2     3    1
     3     3     4    1
     4     4     5    1
     5     5     6    1
     6     6     7    1
     7     7    20    1
     8    20    21    1
     9    21    22    1
    10    22    23   ar
    11    23    24   ar
    12    24    25   ar
    13    25    26   ar
    14    26    28    1
    15    28    29    3
    16    26    27   ar
    17     7     8    1
    18     8     9    1
    19     4    10    1
    20    10    11    1
    21    11    14    1
    22    14    15   ar
    23    15    16   ar
    24    16    17   ar
    25    17    18   ar
    26    18    19   ar
    27    11    12   am
    28    12    13    2
    29    12     2    1
    30     9     4    1
    31    19    14   ar
    32    27    22   ar
