@<TRIPOS>MOLECULE
*****
 32 34 0 0 0
SMALL
GASTEIGER

@<TRIPOS>ATOM
      1 C         141.2831  143.0958  163.7060 C.3     1  UNL1        0.0161
      2 C         139.7846  143.0722  163.7694 C.3     1  UNL1        0.1083
      3 C         139.8519  142.3967  165.1070 C.ar    1  UNL1       -0.0127
      4 C         140.3672  143.1454  166.3003 C.ar    1  UNL1       -0.0033
      5 C         140.4345  142.4699  167.6379 C.ar    1  UNL1        0.0064
      6 C         139.9865  141.0456  167.7822 C.ar    1  UNL1        0.0345
      7 BR        140.0538  140.3701  169.1198 Br      1  UNL1       -0.0490
      8 C         139.4712  140.2969  166.5890 C.ar    1  UNL1        0.0064
      9 C         139.4039  140.9724  165.2513 C.ar    1  UNL1       -0.0033
     10 C         138.2861  143.0485  163.8329 C.3     1  UNL1        0.0138
     11 C         137.5595  143.9856  164.7516 C.3     1  UNL1        0.0009
     12 C         137.5143  142.0879  162.9778 C.3     1  UNL1        0.0009
     13 C         139.7174  143.7477  162.4319 C.2     1  UNL1        0.3199
     14 O         140.3543  143.1063  161.2348 O.2     1  UNL1       -0.2498
     15 C         139.7481  146.2540  161.7480 C.3     1  UNL1        0.2556
     16 O         139.0131  145.0647  162.2913 O.3     1  UNL1       -0.4442
     17 C         142.0253  144.3701  163.9802 C.3     1  UNL1        0.0182
     18 C         143.3921  144.5818  163.3994 C.3     1  UNL1        0.0722
     19 N         144.2376  143.4018  163.0219 N.3     1  UNL1       -0.2715
     20 C         144.4467  143.0608  161.5762 C.3     1  UNL1        0.0896
     21 C         144.8740  142.5626  164.0900 C.3     1  UNL1        0.0728
     22 C         145.6537  141.3371  163.7158 C.3     1  UNL1        0.0303
     23 C         145.1804  139.9835  164.1561 C.3     1  UNL1        0.1252
     24 C         143.7773  139.5456  163.8565 C.2     1  UNL1        0.3513
     25 N         142.9992  138.5054  164.6065 N.2     1  UNL1       -0.0350
     26 C         141.6470  138.3879  163.9679 C.2     1  UNL1        0.2317
     27 C         140.4608  137.5249  164.2808 C.2     1  UNL1        0.0498
     28 C         139.2170  137.6295  163.4490 C.2     1  UNL1       -0.0002
     29 C         139.1594  138.5972  162.3044 C.2     1  UNL1       -0.0172
     30 C         140.3456  139.4602  161.9914 C.3     1  UNL1        0.1037
     31 C         141.5894  139.3556  162.8232 C.2     1  UNL1        0.2174
     32 N         142.9060  140.0711  162.7544 N.2     1  UNL1       -0.0389
@<TRIPOS>BOND
     1    15    16    1
     2    16    13    1
     3    13    14    2
     4    13     2    1
     5     2     1    1
     6     1    17    1
     7    17    18    1
     8    18    19    1
     9    19    20    1
    10    19    21    1
    11    21    22    1
    12    22    23    1
    13    23    24    1
    14    24    25    2
    15    25    26    1
    16    26    27    2
    17    27    28    1
    18    28    29    2
    19    29    30    1
    20    30    31    1
    21    31    32    2
    22     2     3    1
    23     3     4   ar
    24     4     5   ar
    25     5     6   ar
    26     6     7    1
    27     6     8   ar
    28     8     9   ar
    29     2    10    1
    30    10    11    1
    31    10    12    1
    32    32    24    1
    33     9     3   ar
    34    31    26    1
@<TRIPOS>MOLECULE
*****
 32 34 0 0 0
SMALL
GASTEIGER

@<TRIPOS>ATOM
      1 C         141.8409  140.9016  163.5220 C.3     1  UNL1        0.0161
      2 C         143.3119  140.7212  163.7534 C.3     1  UNL1        0.1083
      3 C         143.0884  140.7986  165.2346 C.ar    1  UNL1       -0.0127
      4 C         143.2311  142.1109  165.9472 C.ar    1  UNL1       -0.0033
      5 C         143.0076  142.1882  167.4284 C.ar    1  UNL1        0.0064
      6 C         142.6413  140.9533  168.1971 C.ar    1  UNL1        0.0345
      7 BR        142.4178  141.0308  169.6784 Br      1  UNL1       -0.0490
      8 C         142.4986  139.6411  167.4846 C.ar    1  UNL1        0.0064
      9 C         142.7221  139.5637  166.0034 C.ar    1  UNL1       -0.0033
     10 C         144.7830  140.5409  163.9849 C.3     1  UNL1        0.0138
     11 C         145.2995  139.2558  164.5609 C.3     1  UNL1        0.0009
     12 C         145.7374  141.6455  163.6403 C.3     1  UNL1        0.0009
     13 C         143.5354  140.6439  162.2722 C.2     1  UNL1        0.3199
     14 O         143.2192  141.8250  161.4033 O.2     1  UNL1       -0.2498
     15 C         143.6645  138.9904  160.2724 C.3     1  UNL1        0.2556
     16 O         144.0752  139.3854  161.6599 O.3     1  UNL1       -0.4442
     17 C         141.0616  139.8476  162.7929 C.3     1  UNL1        0.0182
     18 C         140.9324  138.4718  163.3767 C.3     1  UNL1        0.0722
     19 N         139.5744  137.8703  163.5857 N.3     1  UNL1       -0.2715
     20 C         138.5558  137.9173  162.4856 C.3     1  UNL1        0.0896
     21 C         139.2347  137.2218  164.8950 C.3     1  UNL1        0.0728
     22 C         138.3776  137.9458  165.8906 C.3     1  UNL1        0.0303
     23 C         138.8875  139.1905  166.5544 C.3     1  UNL1        0.1252
     24 C         138.8478  140.5001  165.8242 C.2     1  UNL1        0.3513
     25 N         139.6544  141.7201  166.1572 N.2     1  UNL1       -0.0350
     26 C         139.2997  142.7937  165.1715 C.2     1  UNL1        0.2317
     27 C         139.7783  144.2061  165.0103 C.2     1  UNL1        0.0498
     28 C         139.2310  145.0620  163.9067 C.2     1  UNL1       -0.0002
     29 C         138.2052  144.5055  162.9644 C.2     1  UNL1       -0.0172
     30 C         137.7266  143.0931  163.1257 C.3     1  UNL1        0.1037
     31 C         138.2739  142.2372  164.2292 C.2     1  UNL1        0.2174
     32 N         137.9946  140.8197  164.6326 N.2     1  UNL1       -0.0389
@<TRIPOS>BOND
     1    15    16    1
     2    16    13    1
     3    13    14    2
     4    13     2    1
     5     2     1    1
     6     1    17    1
     7    17    18    1
     8    18    19    1
     9    19    20    1
    10    19    21    1
    11    21    22    1
    12    22    23    1
    13    23    24    1
    14    24    25    2
    15    25    26    1
    16    26    27    2
    17    27    28    1
    18    28    29    2
    19    29    30    1
    20    30    31    1
    21    31    32    2
    22     2     3    1
    23     3     4   ar
    24     4     5   ar
    25     5     6   ar
    26     6     7    1
    27     6     8   ar
    28     8     9   ar
    29     2    10    1
    30    10    11    1
    31    10    12    1
    32    32    24    1
    33     9     3   ar
    34    31    26    1
@<TRIPOS>MOLECULE
*****
 32 34 0 0 0
SMALL
GASTEIGER

@<TRIPOS>ATOM
      1 C         142.9583  141.7561  165.4566 C.3     1  UNL1        0.0161
      2 C         142.9854  140.2575  165.5150 C.3     1  UNL1        0.1083
      3 C         142.1553  140.2912  166.7639 C.ar    1  UNL1       -0.0127
      4 C         140.7335  139.8141  166.7324 C.ar    1  UNL1       -0.0033
      5 C         139.9033  139.8477  167.9813 C.ar    1  UNL1        0.0064
      6 C         140.4949  140.3584  169.2616 C.ar    1  UNL1        0.0345
      7 BR        139.6647  140.3920  170.5105 Br      1  UNL1       -0.0490
      8 C         141.9167  140.8355  169.2931 C.ar    1  UNL1        0.0064
      9 C         142.7469  140.8019  168.0442 C.ar    1  UNL1       -0.0033
     10 C         143.0125  138.7589  165.5734 C.3     1  UNL1        0.0138
     11 C         143.9636  138.0615  166.5003 C.3     1  UNL1        0.0009
     12 C         142.0885  137.9576  164.7050 C.3     1  UNL1        0.0009
     13 C         143.8156  140.2239  164.2661 C.2     1  UNL1        0.3199
     14 O         145.3116  140.1707  164.3612 O.2     1  UNL1       -0.2498
     15 C         143.6375  141.1802  161.8570 C.3     1  UNL1        0.2556
     16 O         143.1497  140.2435  162.9221 O.3     1  UNL1       -0.4442
     17 C         141.7540  142.4637  164.9098 C.3     1  UNL1        0.0182
     18 C         141.9244  143.6968  164.0728 C.3     1  UNL1        0.0722
     19 N         140.8273  144.1325  163.1473 N.3     1  UNL1       -0.2715
     20 C         140.7525  143.5737  161.7573 C.3     1  UNL1        0.0896
     21 C         139.8049  145.1270  163.6119 C.3     1  UNL1        0.0728
     22 C         138.8982  144.7905  164.7584 C.3     1  UNL1        0.0303
     23 C         137.6756  143.9529  164.5269 C.3     1  UNL1        0.1252
     24 C         137.8117  142.5608  163.9853 C.2     1  UNL1        0.3513
     25 N         137.4919  142.1237  162.5865 N.2     1  UNL1       -0.0350
     26 C         137.7741  140.6541  162.4840 C.2     1  UNL1        0.2317
     27 C         137.6449  139.6841  161.3472 C.2     1  UNL1        0.0498
     28 C         138.0099  138.2429  161.5459 C.2     1  UNL1       -0.0002
     29 C         138.5042  137.7716  162.8814 C.2     1  UNL1       -0.0172
     30 C         138.6334  138.7416  164.0182 C.3     1  UNL1        0.1037
     31 C         138.2684  140.1828  163.8195 C.2     1  UNL1        0.2174
     32 N         138.2916  141.3612  164.7473 N.2     1  UNL1       -0.0389
@<TRIPOS>BOND
     1    15    16    1
     2    16    13    1
     3    13    14    2
     4    13     2    1
     5     2     1    1
     6     1    17    1
     7    17    18    1
     8    18    19    1
     9    19    20    1
    10    19    21    1
    11    21    22    1
    12    22    23    1
    13    23    24    1
    14    24    25    2
    15    25    26    1
    16    26    27    2
    17    27    28    1
    18    28    29    2
    19    29    30    1
    20    30    31    1
    21    31    32    2
    22     2     3    1
    23     3     4   ar
    24     4     5   ar
    25     5     6   ar
    26     6     7    1
    27     6     8   ar
    28     8     9   ar
    29     2    10    1
    30    10    11    1
    31    10    12    1
    32    32    24    1
    33     9     3   ar
    34    31    26    1
@<TRIPOS>MOLECULE
*****
 32 34 0 0 0
SMALL
GASTEIGER

@<TRIPOS>ATOM
      1 C         140.5357  140.2045  167.1016 C.3     1  UNL1        0.0161
      2 C         141.0182  141.3265  167.9724 C.3     1  UNL1        0.1083
      3 C         141.1187  142.2168  166.7694 C.ar    1  UNL1       -0.0127
      4 C         139.9542  143.0747  166.3717 C.ar    1  UNL1       -0.0033
      5 C         140.0547  143.9650  165.1687 C.ar    1  UNL1        0.0064
      6 C         141.3198  143.9975  164.3634 C.ar    1  UNL1        0.0345
      7 BR        141.4203  144.8879  163.1604 Br      1  UNL1       -0.0490
      8 C         142.4843  143.1398  164.7610 C.ar    1  UNL1        0.0064
      9 C         142.3838  142.2494  165.9640 C.ar    1  UNL1       -0.0033
     10 C         141.5006  142.4487  168.8431 C.3     1  UNL1        0.0138
     11 C         142.9446  142.5201  169.2429 C.3     1  UNL1        0.0009
     12 C         140.5392  143.4992  169.3140 C.3     1  UNL1        0.0009
     13 C         140.9176  140.4362  169.1753 C.2     1  UNL1        0.3199
     14 O         141.7698  139.2055  169.2709 O.2     1  UNL1       -0.2498
     15 C         138.5545  140.2677  170.2418 C.3     1  UNL1        0.2556
     16 O         139.9649  140.7766  170.2829 O.3     1  UNL1       -0.4442
     17 C         139.1057  139.7580  167.1773 C.3     1  UNL1        0.0182
     18 C         138.2333  139.8260  165.9590 C.3     1  UNL1        0.0722
     19 N         138.8000  139.4915  164.6111 N.3     1  UNL1       -0.2715
     20 C         139.2683  140.5881  163.7012 C.3     1  UNL1        0.0896
     21 C         138.8984  138.0602  164.1731 C.3     1  UNL1        0.0728
     22 C         140.1219  137.2574  164.5027 C.3     1  UNL1        0.0303
     23 C         141.2295  137.1321  163.4991 C.3     1  UNL1        0.1252
     24 C         142.2104  138.2529  163.3207 C.2     1  UNL1        0.3513
     25 N         143.3092  138.6228  164.2724 N.2     1  UNL1       -0.0350
     26 C         144.0425  139.7991  163.6992 C.2     1  UNL1        0.2317
     27 C         145.2147  140.5911  164.1978 C.2     1  UNL1        0.0498
     28 C         145.7413  141.7403  163.3903 C.2     1  UNL1       -0.0002
     29 C         145.0957  142.0975  162.0843 C.2     1  UNL1       -0.0172
     30 C         143.9235  141.3055  161.5858 C.3     1  UNL1        0.1037
     31 C         143.3969  140.1563  162.3932 C.2     1  UNL1        0.2174
     32 N         142.2646  139.2007  162.1593 N.2     1  UNL1       -0.0389
@<TRIPOS>BOND
     1    15    16    1
     2    16    13    1
     3    13    14    2
     4    13     2    1
     5     2     1    1
     6     1    17    1
     7    17    18    1
     8    18    19    1
     9    19    20    1
    10    19    21    1
    11    21    22    1
    12    22    23    1
    13    23    24    1
    14    24    25    2
    15    25    26    1
    16    26    27    2
    17    27    28    1
    18    28    29    2
    19    29    30    1
    20    30    31    1
    21    31    32    2
    22     2     3    1
    23     3     4   ar
    24     4     5   ar
    25     5     6   ar
    26     6     7    1
    27     6     8   ar
    28     8     9   ar
    29     2    10    1
    30    10    11    1
    31    10    12    1
    32    32    24    1
    33     9     3   ar
    34    31    26    1
@<TRIPOS>MOLECULE
*****
 32 34 0 0 0
SMALL
GASTEIGER

@<TRIPOS>ATOM
      1 C         142.1392  140.3439  164.6544 C.3     1  UNL1        0.0161
      2 C         140.7985  139.6991  164.8458 C.3     1  UNL1        0.1083
      3 C         140.6456  140.4069  166.1594 C.ar    1  UNL1       -0.0127
      4 C         140.6594  141.9060  166.2097 C.ar    1  UNL1       -0.0033
      5 C         140.5066  142.6138  167.5233 C.ar    1  UNL1        0.0064
      6 C         140.3399  141.8225  168.7867 C.ar    1  UNL1        0.0345
      7 BR        140.1871  142.5304  170.1004 Br      1  UNL1       -0.0490
      8 C         140.3261  140.3234  168.7364 C.ar    1  UNL1        0.0064
      9 C         140.4790  139.6156  167.4228 C.ar    1  UNL1       -0.0033
     10 C         139.4577  139.0543  165.0373 C.3     1  UNL1        0.0138
     11 C         139.3566  137.5657  165.1919 C.3     1  UNL1        0.0009
     12 C         138.2181  139.8980  165.0741 C.3     1  UNL1        0.0009
     13 C         140.9513  138.9913  163.5322 C.2     1  UNL1        0.3199
     14 O         141.7729  137.7393  163.4459 O.2     1  UNL1       -0.2498
     15 C         139.5619  138.6096  161.3702 C.3     1  UNL1        0.2556
     16 O         140.2825  139.5355  162.3047 O.3     1  UNL1       -0.4442
     17 C         143.3711  139.6913  165.2079 C.3     1  UNL1        0.0182
     18 C         144.6180  139.6168  164.3773 C.3     1  UNL1        0.0722
     19 N         144.7309  140.4263  163.1196 N.3     1  UNL1       -0.2715
     20 C         144.2744  139.8489  161.8126 C.3     1  UNL1        0.0896
     21 C         145.3003  141.8132  163.1688 C.3     1  UNL1        0.0728
     22 C         144.8185  142.8564  162.2046 C.3     1  UNL1        0.0303
     23 C         144.0843  144.0628  162.7099 C.3     1  UNL1        0.1252
     24 C         142.6138  143.9811  162.9946 C.2     1  UNL1        0.3513
     25 N         141.8579  144.8247  163.9779 N.2     1  UNL1       -0.0350
     26 C         140.4180  144.4065  163.9370 C.2     1  UNL1        0.2317
     27 C         139.2116  144.8869  164.6878 C.2     1  UNL1        0.0498
     28 C         137.8711  144.2651  164.4300 C.2     1  UNL1       -0.0002
     29 C         137.7370  143.1630  163.4213 C.2     1  UNL1       -0.0172
     30 C         138.9434  142.6827  162.6705 C.3     1  UNL1        0.1037
     31 C         140.2839  143.3044  162.9283 C.2     1  UNL1        0.2174
     32 N         141.6410  143.0416  162.3459 N.2     1  UNL1       -0.0389
@<TRIPOS>BOND
     1    15    16    1
     2    16    13    1
     3    13    14    2
     4    13     2    1
     5     2     1    1
     6     1    17    1
     7    17    18    1
     8    18    19    1
     9    19    20    1
    10    19    21    1
    11    21    22    1
    12    22    23    1
    13    23    24    1
    14    24    25    2
    15    25    26    1
    16    26    27    2
    17    27    28    1
    18    28    29    2
    19    29    30    1
    20    30    31    1
    21    31    32    2
    22     2     3    1
    23     3     4   ar
    24     4     5   ar
    25     5     6   ar
    26     6     7    1
    27     6     8   ar
    28     8     9   ar
    29     2    10    1
    30    10    11    1
    31    10    12    1
    32    32    24    1
    33     9     3   ar
    34    31    26    1
@<TRIPOS>MOLECULE
*****
 32 34 0 0 0
SMALL
GASTEIGER

@<TRIPOS>ATOM
      1 C         139.7455  141.2233  164.5275 C.3     1  UNL1        0.0161
      2 C         139.8342  142.7182  164.6141 C.3     1  UNL1        0.1083
      3 C         140.7224  142.5958  165.8166 C.ar    1  UNL1       -0.0127
      4 C         142.1896  142.3364  165.6421 C.ar    1  UNL1       -0.0033
      5 C         143.0778  142.2140  166.8446 C.ar    1  UNL1        0.0064
      6 C         142.4989  142.3510  168.2217 C.ar    1  UNL1        0.0345
      7 BR        143.3872  142.2286  169.4242 Br      1  UNL1       -0.0490
      8 C         141.0319  142.6104  168.3962 C.ar    1  UNL1        0.0064
      9 C         140.1436  142.7328  167.1936 C.ar    1  UNL1       -0.0033
     10 C         139.9230  144.2131  164.7007 C.3     1  UNL1        0.0138
     11 C         138.9192  144.9783  165.5112 C.3     1  UNL1        0.0009
     12 C         141.0155  144.9427  163.9768 C.3     1  UNL1        0.0009
     13 C         138.9460  142.8405  163.4116 C.2     1  UNL1        0.3199
     14 O         137.5470  143.3602  163.5623 O.2     1  UNL1       -0.2498
     15 C         138.4955  142.0123  160.9906 C.3     1  UNL1        0.2556
     16 O         139.4568  142.4432  162.0583 O.3     1  UNL1       -0.4442
     17 C         138.4720  140.5247  164.9017 C.3     1  UNL1        0.0182
     18 C         138.4548  139.5615  166.0515 C.3     1  UNL1        0.0722
     19 N         138.6389  138.0937  165.8031 N.3     1  UNL1       -0.2715
     20 C         137.7151  137.1025  166.4465 C.3     1  UNL1        0.0896
     21 C         139.7470  137.6172  164.9113 C.3     1  UNL1        0.0728
     22 C         139.5431  137.5615  163.4263 C.3     1  UNL1        0.0303
     23 C         140.7265  137.5908  162.5051 C.3     1  UNL1        0.1252
     24 C         141.8042  138.6156  162.7011 C.2     1  UNL1        0.3513
     25 N         141.8575  139.9721  162.0631 N.2     1  UNL1       -0.0350
     26 C         143.1041  140.6587  162.5371 C.2     1  UNL1        0.2317
     27 C         143.6788  142.0122  162.2413 C.2     1  UNL1        0.0498
     28 C         144.9707  142.4336  162.8765 C.2     1  UNL1       -0.0002
     29 C         145.6878  141.5014  163.8074 C.2     1  UNL1       -0.0172
     30 C         145.1131  140.1478  164.1032 C.3     1  UNL1        0.1037
     31 C         143.8212  139.7265  163.4681 C.2     1  UNL1        0.2174
     32 N         143.0179  138.4638  163.5694 N.2     1  UNL1       -0.0389
@<TRIPOS>BOND
     1    15    16    1
     2    16    13    1
     3    13    14    2
     4    13     2    1
     5     2     1    1
     6     1    17    1
     7    17    18    1
     8    18    19    1
     9    19    20    1
    10    19    21    1
    11    21    22    1
    12    22    23    1
    13    23    24    1
    14    24    25    2
    15    25    26    1
    16    26    27    2
    17    27    28    1
    18    28    29    2
    19    29    30    1
    20    30    31    1
    21    31    32    2
    22     2     3    1
    23     3     4   ar
    24     4     5   ar
    25     5     6   ar
    26     6     7    1
    27     6     8   ar
    28     8     9   ar
    29     2    10    1
    30    10    11    1
    31    10    12    1
    32    32    24    1
    33     9     3   ar
    34    31    26    1
@<TRIPOS>MOLECULE
*****
 32 34 0 0 0
SMALL
GASTEIGER

@<TRIPOS>ATOM
      1 C         142.7392  139.1102  166.0402 C.3     1  UNL1        0.0161
      2 C         141.6173  139.8517  166.7047 C.3     1  UNL1        0.1083
      3 C         140.7271  139.5530  165.5350 C.ar    1  UNL1       -0.0127
      4 C         140.3090  138.1405  165.2520 C.ar    1  UNL1       -0.0033
      5 C         139.4188  137.8418  164.0823 C.ar    1  UNL1        0.0064
      6 C         138.9466  138.9557  163.1955 C.ar    1  UNL1        0.0345
      7 BR        138.0564  138.6569  162.0257 Br      1  UNL1       -0.0490
      8 C         139.3647  140.3681  163.4784 C.ar    1  UNL1        0.0064
      9 C         140.2549  140.6669  164.6482 C.ar    1  UNL1       -0.0033
     10 C         140.4953  140.5932  167.3692 C.3     1  UNL1        0.0138
     11 C         139.4603  139.8419  168.1529 C.3     1  UNL1        0.0009
     12 C         140.4085  142.0859  167.2500 C.3     1  UNL1        0.0009
     13 C         142.5075  140.1503  167.8744 C.2     1  UNL1        0.3199
     14 O         142.8728  139.0592  168.8367 O.2     1  UNL1       -0.2498
     15 C         143.4206  141.9978  169.4566 C.3     1  UNL1        0.2556
     16 O         143.0324  141.5401  168.0819 O.3     1  UNL1       -0.4442
     17 C         143.7463  139.8558  165.2157 C.3     1  UNL1        0.0182
     18 C         144.1754  139.3132  163.8847 C.3     1  UNL1        0.0722
     19 N         144.4630  140.2510  162.7499 N.3     1  UNL1       -0.2715
     20 C         144.1555  139.8395  161.3406 C.3     1  UNL1        0.0896
     21 C         145.0582  141.6003  163.0244 C.3     1  UNL1        0.0728
     22 C         144.8185  142.7336  162.0715 C.3     1  UNL1        0.0303
     23 C         144.1750  143.9985  162.5572 C.3     1  UNL1        0.1252
     24 C         142.7014  144.0314  162.8356 C.2     1  UNL1        0.3513
     25 N         141.6116  143.7114  161.8559 N.2     1  UNL1       -0.0350
     26 C         140.2956  143.8722  162.5575 C.2     1  UNL1        0.2317
     27 C         138.8813  143.6910  162.0919 C.2     1  UNL1        0.0498
     28 C         137.7434  143.9291  163.0398 C.2     1  UNL1       -0.0002
     29 C         138.0199  144.3486  164.4532 C.2     1  UNL1       -0.0172
     30 C         139.4342  144.5298  164.9187 C.3     1  UNL1        0.1037
     31 C         140.5721  144.2917  163.9709 C.2     1  UNL1        0.2174
     32 N         142.0589  144.3900  164.1428 N.2     1  UNL1       -0.0389
@<TRIPOS>BOND
     1    15    16    1
     2    16    13    1
     3    13    14    2
     4    13     2    1
     5     2     1    1
     6     1    17    1
     7    17    18    1
     8    18    19    1
     9    19    20    1
    10    19    21    1
    11    21    22    1
    12    22    23    1
    13    23    24    1
    14    24    25    2
    15    25    26    1
    16    26    27    2
    17    27    28    1
    18    28    29    2
    19    29    30    1
    20    30    31    1
    21    31    32    2
    22     2     3    1
    23     3     4   ar
    24     4     5   ar
    25     5     6   ar
    26     6     7    1
    27     6     8   ar
    28     8     9   ar
    29     2    10    1
    30    10    11    1
    31    10    12    1
    32    32    24    1
    33     9     3   ar
    34    31    26    1
@<TRIPOS>MOLECULE
*****
 32 34 0 0 0
SMALL
GASTEIGER

@<TRIPOS>ATOM
      1 C         142.8751  140.9124  164.3909 C.3     1  UNL1        0.0161
      2 C         143.3717  142.3173  164.5631 C.3     1  UNL1        0.1083
      3 C         142.5905  142.4372  165.8379 C.ar    1  UNL1       -0.0127
      4 C         143.2497  142.1406  167.1523 C.ar    1  UNL1       -0.0033
      5 C         142.4685  142.2605  168.4271 C.ar    1  UNL1        0.0064
      6 C         141.0280  142.6769  168.3877 C.ar    1  UNL1        0.0345
      7 BR        140.2468  142.7968  169.6626 Br      1  UNL1       -0.0490
      8 C         140.3687  142.9735  167.0734 C.ar    1  UNL1        0.0064
      9 C         141.1500  142.8536  165.7985 C.ar    1  UNL1       -0.0033
     10 C         143.8682  143.7223  164.7353 C.3     1  UNL1        0.0138
     11 C         144.9477  144.0191  165.7336 C.3     1  UNL1        0.0009
     12 C         143.2853  144.8303  163.9092 C.3     1  UNL1        0.0009
     13 C         144.1529  142.1974  163.2882 C.2     1  UNL1        0.3199
     14 O         145.6513  142.1408  163.3293 O.2     1  UNL1       -0.2498
     15 C         144.0132  142.8198  160.7696 C.3     1  UNL1        0.2556
     16 O         143.4358  142.1341  161.9722 O.3     1  UNL1       -0.4442
     17 C         143.7054  139.7594  164.8716 C.3     1  UNL1        0.0182
     18 C         143.0501  138.5989  165.5602 C.3     1  UNL1        0.0722
     19 N         141.5621  138.4253  165.4854 N.3     1  UNL1       -0.2715
     20 C         140.6680  139.2190  166.3914 C.3     1  UNL1        0.0896
     21 C         140.9681  137.4580  164.5048 C.3     1  UNL1        0.0728
     22 C         139.4788  137.3628  164.3536 C.3     1  UNL1        0.0303
     23 C         138.7850  138.1275  163.2657 C.3     1  UNL1        0.1252
     24 C         138.8396  139.6265  163.2504 C.2     1  UNL1        0.3513
     25 N         139.8228  140.4652  162.4888 N.2     1  UNL1       -0.0350
     26 C         139.5115  141.9069  162.7617 C.2     1  UNL1        0.2317
     27 C         140.1467  143.1788  162.2833 C.2     1  UNL1        0.0498
     28 C         139.6063  144.5031  162.7352 C.2     1  UNL1       -0.0002
     29 C         138.4307  144.5554  163.6654 C.2     1  UNL1       -0.0172
     30 C         137.7956  143.2836  164.1438 C.3     1  UNL1        0.1037
     31 C         138.3360  141.9593  163.6919 C.2     1  UNL1        0.2174
     32 N         137.9208  140.5499  163.9940 N.2     1  UNL1       -0.0389
@<TRIPOS>BOND
     1    15    16    1
     2    16    13    1
     3    13    14    2
     4    13     2    1
     5     2     1    1
     6     1    17    1
     7    17    18    1
     8    18    19    1
     9    19    20    1
    10    19    21    1
    11    21    22    1
    12    22    23    1
    13    23    24    1
    14    24    25    2
    15    25    26    1
    16    26    27    2
    17    27    28    1
    18    28    29    2
    19    29    30    1
    20    30    31    1
    21    31    32    2
    22     2     3    1
    23     3     4   ar
    24     4     5   ar
    25     5     6   ar
    26     6     7    1
    27     6     8   ar
    28     8     9   ar
    29     2    10    1
    30    10    11    1
    31    10    12    1
    32    32    24    1
    33     9     3   ar
    34    31    26    1
@<TRIPOS>MOLECULE
*****
 32 34 0 0 0
SMALL
GASTEIGER

@<TRIPOS>ATOM
      1 C         141.7056  140.4322  164.2767 C.3     1  UNL1        0.0161
      2 C         142.7247  141.5326  164.2961 C.3     1  UNL1        0.1083
      3 C         142.2884  141.9123  165.6800 C.ar    1  UNL1       -0.0127
      4 C         143.2664  141.8578  166.8162 C.ar    1  UNL1       -0.0033
      5 C         142.8301  142.2374  168.2002 C.ar    1  UNL1        0.0064
      6 C         141.4159  142.6716  168.4481 C.ar    1  UNL1        0.0345
      7 BR        140.9797  143.0513  169.8322 Br      1  UNL1       -0.0490
      8 C         140.4380  142.7261  167.3121 C.ar    1  UNL1        0.0064
      9 C         140.8742  142.3465  165.9280 C.ar    1  UNL1       -0.0033
     10 C         143.7439  142.6331  164.3155 C.3     1  UNL1        0.0138
     11 C         145.2061  142.3006  164.3497 C.3     1  UNL1        0.0009
     12 C         143.3008  144.0661  164.3007 C.3     1  UNL1        0.0009
     13 C         143.1610  141.1530  162.9121 C.2     1  UNL1        0.3199
     14 O         142.6657  141.9316  161.7295 O.2     1  UNL1       -0.2498
     15 C         143.9203  139.0910  161.5258 C.3     1  UNL1        0.2556
     16 O         144.0925  139.9946  162.7106 O.3     1  UNL1       -0.4442
     17 C         141.9880  139.1361  164.9768 C.3     1  UNL1        0.0182
     18 C         141.4513  137.8506  164.4203 C.3     1  UNL1        0.0722
     19 N         140.0129  137.7554  164.0057 N.3     1  UNL1       -0.2715
     20 C         138.9353  137.6855  165.0469 C.3     1  UNL1        0.0896
     21 C         139.6520  137.7301  162.5500 C.3     1  UNL1        0.0728
     22 C         138.2243  137.9133  162.1280 C.3     1  UNL1        0.0303
     23 C         137.7997  139.1817  161.4492 C.3     1  UNL1        0.1252
     24 C         138.1004  140.5080  162.0821 C.2     1  UNL1        0.3513
     25 N         137.3446  141.1356  163.2157 N.2     1  UNL1       -0.0350
     26 C         137.9868  142.4550  163.5268 C.2     1  UNL1        0.2317
     27 C         137.6709  143.5097  164.5455 C.2     1  UNL1        0.0498
     28 C         138.5077  144.7521  164.6230 C.2     1  UNL1       -0.0002
     29 C         139.6604  144.9400  163.6817 C.2     1  UNL1       -0.0172
     30 C         139.9763  143.8853  162.6630 C.3     1  UNL1        0.1037
     31 C         139.1395  142.6429  162.5855 C.2     1  UNL1        0.2174
     32 N         139.2097  141.4395  161.6927 N.2     1  UNL1       -0.0389
@<TRIPOS>BOND
     1    15    16    1
     2    16    13    1
     3    13    14    2
     4    13     2    1
     5     2     1    1
     6     1    17    1
     7    17    18    1
     8    18    19    1
     9    19    20    1
    10    19    21    1
    11    21    22    1
    12    22    23    1
    13    23    24    1
    14    24    25    2
    15    25    26    1
    16    26    27    2
    17    27    28    1
    18    28    29    2
    19    29    30    1
    20    30    31    1
    21    31    32    2
    22     2     3    1
    23     3     4   ar
    24     4     5   ar
    25     5     6   ar
    26     6     7    1
    27     6     8   ar
    28     8     9   ar
    29     2    10    1
    30    10    11    1
    31    10    12    1
    32    32    24    1
    33     9     3   ar
    34    31    26    1
