@<TRIPOS>MOLECULE
*****
 33 36 0 0 0
SMALL
GASTEIGER

@<TRIPOS>ATOM
      1 N         138.3885  138.8280  167.3971 N.pl3   1  UNL1       -0.3414
      2 C         139.0097  138.7380  166.0348 C.ar    1  UNL1        0.1432
      3 N         138.3719  137.8906  164.9741 N.ar    1  UNL1       -0.2265
      4 C         138.9931  137.8006  163.6117 C.ar    1  UNL1        0.1193
      5 C         140.2521  138.5580  163.3100 C.ar    1  UNL1        0.1005
      6 N         140.8900  139.4054  164.3707 N.ar    1  UNL1       -0.2410
      7 C         140.2688  139.4954  165.7330 C.ar    1  UNL1        0.1123
      8 H         137.5622  138.3309  167.5951 H       1  UNL1        0.1438
      9 H         138.8072  139.3842  168.0933 H       1  UNL1        0.1438
     10 C         140.8733  138.4681  161.9477 C.ar    1  UNL1        0.0192
     11 C         142.2587  137.9151  161.7901 C.ar    1  UNL1        0.0017
     12 C         142.8799  137.8251  160.4278 C.ar    1  UNL1        0.0046
     13 C         142.1157  138.2881  159.2230 C.ar    1  UNL1        0.0536
     14 C         140.7303  138.8410  159.3805 C.ar    1  UNL1        0.0046
     15 C         140.1091  138.9310  160.7429 C.ar    1  UNL1        0.0017
     16 C         142.7369  138.1981  157.8606 C.2     1  UNL1        0.2492
     17 O         142.5379  136.9682  157.0253 O.2     1  UNL1       -0.2699
     18 N         143.5571  139.3380  157.3335 N.am    1  UNL1       -0.2709
     19 C         143.7561  140.5680  158.1688 C.3     1  UNL1        0.1258
     20 C         144.5763  141.7079  157.6417 C.3     1  UNL1        0.1637
     21 O         145.1975  141.6179  156.2794 O.3     1  UNL1       -0.3501
     22 C         144.9985  140.3880  155.4441 C.3     1  UNL1        0.1637
     23 C         144.1783  139.2480  155.9712 C.3     1  UNL1        0.1258
     24 C         140.9067  140.3428  166.7937 C.ar    1  UNL1        0.0204
     25 C         140.4331  141.7486  167.0161 C.ar    1  UNL1        0.0015
     26 C         141.0709  142.5961  168.0767 C.ar    1  UNL1        0.0039
     27 C         142.1825  142.0377  168.9150 C.ar    1  UNL1        0.0714
     28 C         142.6562  140.6319  168.6927 C.ar    1  UNL1        0.0039
     29 C         142.0182  139.7845  167.6320 C.ar    1  UNL1        0.0015
     30 C         142.8204  142.8852  169.9756 C.3     1  UNL1        0.4186
     31 F         143.4582  143.7326  171.0362 F       1  UNL1       -0.1659
     32 F         141.6107  143.7718  169.9947 F       1  UNL1       -0.1659
     33 F         144.0301  141.9985  169.9565 F       1  UNL1       -0.1659
@<TRIPOS>BOND
     1     1     2    1
     2     2     3   ar
     3     3     4   ar
     4     4     5   ar
     5     5    10    1
     6    10    11   ar
     7    11    12   ar
     8    12    13   ar
     9    13    16    1
    10    16    17    2
    11    16    18   am
    12    18    19    1
    13    19    20    1
    14    20    21    1
    15    21    22    1
    16    22    23    1
    17    13    14   ar
    18    14    15   ar
    19     5     6   ar
    20     6     7   ar
    21     7    24    1
    22    24    25   ar
    23    25    26   ar
    24    26    27   ar
    25    27    30    1
    26    30    31    1
    27    30    32    1
    28    30    33    1
    29    27    28   ar
    30    28    29   ar
    31     7     2   ar
    32    29    24   ar
    33    15    10   ar
    34    23    18    1
    35     1     8    1
    36     1     9    1
@<TRIPOS>MOLECULE
*****
 33 36 0 0 0
SMALL
GASTEIGER

@<TRIPOS>ATOM
      1 N         138.4731  138.8480  167.1212 N.pl3   1  UNL1       -0.3414
      2 C         139.1178  138.8365  165.7668 C.ar    1  UNL1        0.1432
      3 N         138.5167  138.0263  164.6568 N.ar    1  UNL1       -0.2265
      4 C         139.1614  138.0148  163.3025 C.ar    1  UNL1        0.1193
      5 C         140.4073  138.8136  163.0582 C.ar    1  UNL1        0.1005
      6 N         141.0084  139.6238  164.1681 N.ar    1  UNL1       -0.2410
      7 C         140.3637  139.6353  165.5225 C.ar    1  UNL1        0.1123
      8 H         137.6554  138.3238  167.2815 H       1  UNL1        0.1438
      9 H         138.8677  139.3798  167.8497 H       1  UNL1        0.1438
     10 C         141.0520  138.8021  161.7038 C.ar    1  UNL1        0.0192
     11 C         140.6087  139.7773  160.6539 C.ar    1  UNL1        0.0017
     12 C         141.2534  139.7658  159.2995 C.ar    1  UNL1        0.0046
     13 C         142.3414  138.7791  158.9952 C.ar    1  UNL1        0.0536
     14 C         142.7846  137.8039  160.0451 C.ar    1  UNL1        0.0046
     15 C         142.1399  137.8154  161.3994 C.ar    1  UNL1        0.0017
     16 C         142.9861  138.7676  157.6408 C.2     1  UNL1        0.2492
     17 O         144.2648  139.5178  157.4125 O.2     1  UNL1       -0.2699
     18 N         142.3522  138.0059  156.5148 N.am    1  UNL1       -0.2709
     19 C         141.0735  137.2556  156.7432 C.3     1  UNL1        0.1258
     20 C         140.4395  136.4939  155.6172 C.3     1  UNL1        0.1637
     21 O         141.0842  136.4824  154.2629 O.3     1  UNL1       -0.3501
     22 C         142.3629  137.2326  154.0345 C.3     1  UNL1        0.1637
     23 C         142.9969  137.9944  155.1605 C.3     1  UNL1        0.1258
     24 C         140.9650  140.4455  166.6325 C.ar    1  UNL1        0.0204
     25 C         140.4360  141.8170  166.9314 C.ar    1  UNL1        0.0015
     26 C         141.0372  142.6273  168.0413 C.ar    1  UNL1        0.0039
     27 C         142.1674  142.0661  168.8524 C.ar    1  UNL1        0.0714
     28 C         142.6964  140.6947  168.5535 C.ar    1  UNL1        0.0039
     29 C         142.0951  139.8844  167.4435 C.ar    1  UNL1        0.0015
     30 C         142.7686  142.8764  169.9623 C.3     1  UNL1        0.4186
     31 F         143.3697  143.6866  171.0723 F       1  UNL1       -0.1659
     32 F         143.9780  141.9891  169.9550 F       1  UNL1       -0.1659
     33 F         141.5592  143.7636  169.9697 F       1  UNL1       -0.1659
@<TRIPOS>BOND
     1     1     2    1
     2     2     3   ar
     3     3     4   ar
     4     4     5   ar
     5     5    10    1
     6    10    11   ar
     7    11    12   ar
     8    12    13   ar
     9    13    16    1
    10    16    17    2
    11    16    18   am
    12    18    19    1
    13    19    20    1
    14    20    21    1
    15    21    22    1
    16    22    23    1
    17    13    14   ar
    18    14    15   ar
    19     5     6   ar
    20     6     7   ar
    21     7    24    1
    22    24    25   ar
    23    25    26   ar
    24    26    27   ar
    25    27    30    1
    26    30    31    1
    27    30    32    1
    28    30    33    1
    29    27    28   ar
    30    28    29   ar
    31     7     2   ar
    32    29    24   ar
    33    15    10   ar
    34    23    18    1
    35     1     8    1
    36     1     9    1
@<TRIPOS>MOLECULE
*****
 33 36 0 0 0
SMALL
GASTEIGER

@<TRIPOS>ATOM
      1 N         141.1059  136.6780  164.4731 N.pl3   1  UNL1       -0.3414
      2 C         141.1402  137.8566  163.5459 C.ar    1  UNL1        0.1432
      3 N         141.2726  137.6439  162.0670 N.ar    1  UNL1       -0.2265
      4 C         141.3070  138.8226  161.1399 C.ar    1  UNL1        0.1193
      5 C         141.2089  140.2139  161.6916 C.ar    1  UNL1        0.1005
      6 N         141.0764  140.4266  163.1705 N.ar    1  UNL1       -0.2410
      7 C         141.0421  139.2480  164.0976 C.ar    1  UNL1        0.1123
      8 H         141.1702  135.7648  164.1109 H       1  UNL1        0.1438
      9 H         141.0189  136.8176  165.4437 H       1  UNL1        0.1438
     10 C         141.2432  141.3926  160.7645 C.ar    1  UNL1        0.0192
     11 C         142.0480  141.3292  159.5003 C.ar    1  UNL1        0.0017
     12 C         142.0823  142.5078  158.5731 C.ar    1  UNL1        0.0046
     13 C         141.3119  143.7499  158.9101 C.ar    1  UNL1        0.0536
     14 C         140.5071  143.8133  160.1743 C.ar    1  UNL1        0.0046
     15 C         140.4727  142.6346  161.1015 C.ar    1  UNL1        0.0017
     16 C         141.3462  144.9285  157.9830 C.2     1  UNL1        0.2492
     17 O         142.4257  145.9607  158.1217 O.2     1  UNL1       -0.2699
     18 N         140.3010  145.0750  156.9171 N.am    1  UNL1       -0.2709
     19 C         139.2215  144.0429  156.7784 C.3     1  UNL1        0.1258
     20 C         138.1763  144.1894  155.7125 C.3     1  UNL1        0.1637
     21 O         138.2106  145.3680  154.7854 O.3     1  UNL1       -0.3501
     22 C         139.2901  146.4002  154.9241 C.3     1  UNL1        0.1637
     23 C         140.3354  146.2537  155.9900 C.3     1  UNL1        0.1258
     24 C         140.9097  139.4608  165.5766 C.ar    1  UNL1        0.0204
     25 C         142.1327  139.4743  166.4449 C.ar    1  UNL1        0.0015
     26 C         142.0004  139.6871  167.9237 C.ar    1  UNL1        0.0039
     27 C         140.6448  139.8863  168.5345 C.ar    1  UNL1        0.0714
     28 C         139.4217  139.8727  167.6662 C.ar    1  UNL1        0.0039
     29 C         139.5542  139.6600  166.1873 C.ar    1  UNL1        0.0015
     30 C         140.5124  140.0990  170.0134 C.3     1  UNL1        0.4186
     31 F         140.3800  140.3118  171.4922 F       1  UNL1       -0.1659
     32 F         141.6491  139.1498  170.2517 F       1  UNL1       -0.1659
     33 F         139.3757  141.0483  169.7751 F       1  UNL1       -0.1659
@<TRIPOS>BOND
     1     1     2    1
     2     2     3   ar
     3     3     4   ar
     4     4     5   ar
     5     5    10    1
     6    10    11   ar
     7    11    12   ar
     8    12    13   ar
     9    13    16    1
    10    16    17    2
    11    16    18   am
    12    18    19    1
    13    19    20    1
    14    20    21    1
    15    21    22    1
    16    22    23    1
    17    13    14   ar
    18    14    15   ar
    19     5     6   ar
    20     6     7   ar
    21     7    24    1
    22    24    25   ar
    23    25    26   ar
    24    26    27   ar
    25    27    30    1
    26    30    31    1
    27    30    32    1
    28    30    33    1
    29    27    28   ar
    30    28    29   ar
    31     7     2   ar
    32    29    24   ar
    33    15    10   ar
    34    23    18    1
    35     1     8    1
    36     1     9    1
@<TRIPOS>MOLECULE
*****
 33 36 0 0 0
SMALL
GASTEIGER

@<TRIPOS>ATOM
      1 N         138.1453  144.7529  165.4195 N.pl3   1  UNL1       -0.3414
      2 C         139.1039  144.3493  164.3387 C.ar    1  UNL1        0.1432
      3 N         139.1270  145.0975  163.0389 N.ar    1  UNL1       -0.2265
      4 C         140.0856  144.6939  161.9581 C.ar    1  UNL1        0.1193
      5 C         141.0212  143.5422  162.1771 C.ar    1  UNL1        0.1005
      6 N         140.9982  142.7940  163.4770 N.ar    1  UNL1       -0.2410
      7 C         140.0395  143.1976  164.5578 C.ar    1  UNL1        0.1123
      8 H         137.5312  145.5088  165.2757 H       1  UNL1        0.1438
      9 H         138.1301  144.2618  166.2726 H       1  UNL1        0.1438
     10 C         141.9799  143.1386  161.0963 C.ar    1  UNL1        0.0192
     11 C         141.8711  143.7496  159.7308 C.ar    1  UNL1        0.0017
     12 C         142.8298  143.3460  158.6500 C.ar    1  UNL1        0.0046
     13 C         143.8972  142.3314  158.9348 C.ar    1  UNL1        0.0536
     14 C         144.0060  141.7204  160.3003 C.ar    1  UNL1        0.0046
     15 C         143.0473  142.1240  161.3811 C.ar    1  UNL1        0.0017
     16 C         144.8559  141.9279  157.8540 C.2     1  UNL1        0.2492
     17 O         146.1259  142.6998  157.6514 O.2     1  UNL1       -0.2699
     18 N         144.5445  140.7524  156.9758 N.am    1  UNL1       -0.2709
     19 C         143.2744  139.9804  157.1784 C.3     1  UNL1        0.1258
     20 C         142.9630  138.8049  156.3002 C.3     1  UNL1        0.1637
     21 O         143.9216  138.4013  155.2194 O.3     1  UNL1       -0.3501
     22 C         145.1917  139.1732  155.0168 C.3     1  UNL1        0.1637
     23 C         145.5031  140.3488  155.8950 C.3     1  UNL1        0.1258
     24 C         140.0165  142.4493  165.8577 C.ar    1  UNL1        0.0204
     25 C         139.4901  141.0455  165.9058 C.ar    1  UNL1        0.0015
     26 C         139.4671  140.2973  167.2056 C.ar    1  UNL1        0.0039
     27 C         139.9705  140.9528  168.4574 C.ar    1  UNL1        0.0714
     28 C         140.4969  142.3566  168.4093 C.ar    1  UNL1        0.0039
     29 C         140.5199  143.1048  167.1094 C.ar    1  UNL1        0.0015
     30 C         139.9475  140.2046  169.7572 C.3     1  UNL1        0.4186
     31 F         139.9245  139.4563  171.0570 F       1  UNL1       -0.1659
     32 F         138.7545  141.0016  170.1949 F       1  UNL1       -0.1659
     33 F         141.1405  139.4076  169.3195 F       1  UNL1       -0.1659
@<TRIPOS>BOND
     1     1     2    1
     2     2     3   ar
     3     3     4   ar
     4     4     5   ar
     5     5    10    1
     6    10    11   ar
     7    11    12   ar
     8    12    13   ar
     9    13    16    1
    10    16    17    2
    11    16    18   am
    12    18    19    1
    13    19    20    1
    14    20    21    1
    15    21    22    1
    16    22    23    1
    17    13    14   ar
    18    14    15   ar
    19     5     6   ar
    20     6     7   ar
    21     7    24    1
    22    24    25   ar
    23    25    26   ar
    24    26    27   ar
    25    27    30    1
    26    30    31    1
    27    30    32    1
    28    30    33    1
    29    27    28   ar
    30    28    29   ar
    31     7     2   ar
    32    29    24   ar
    33    15    10   ar
    34    23    18    1
    35     1     8    1
    36     1     9    1
@<TRIPOS>MOLECULE
*****
 33 36 0 0 0
SMALL
GASTEIGER

@<TRIPOS>ATOM
      1 N         143.3833  138.9844  155.6295 N.pl3   1  UNL1       -0.3414
      2 C         143.3703  138.9414  157.1289 C.ar    1  UNL1        0.1432
      3 N         143.7847  140.1482  157.9174 N.ar    1  UNL1       -0.2265
      4 C         143.7716  140.1051  159.4168 C.ar    1  UNL1        0.1193
      5 C         143.3442  138.8553  160.1275 C.ar    1  UNL1        0.1005
      6 N         142.9298  137.6485  159.3390 N.ar    1  UNL1       -0.2410
      7 C         142.9429  137.6915  157.8396 C.ar    1  UNL1        0.1123
      8 H         143.6639  139.8047  155.1631 H       1  UNL1        0.1438
      9 H         143.1114  138.1923  155.1120 H       1  UNL1        0.1438
     10 C         143.3311  138.8123  161.6269 C.ar    1  UNL1        0.0192
     11 C         144.3646  139.5684  162.4079 C.ar    1  UNL1        0.0017
     12 C         144.3516  139.5254  163.9072 C.ar    1  UNL1        0.0046
     13 C         143.3050  138.7263  164.6255 C.ar    1  UNL1        0.0536
     14 C         142.2715  137.9701  163.8445 C.ar    1  UNL1        0.0046
     15 C         142.2846  138.0131  162.3451 C.ar    1  UNL1        0.0017
     16 C         143.2919  138.6832  166.1248 C.2     1  UNL1        0.2492
     17 O         144.2046  137.7440  166.8562 O.2     1  UNL1       -0.2699
     18 N         142.3663  139.5795  166.8928 N.am    1  UNL1       -0.2709
     19 C         141.4536  140.5188  166.1615 C.3     1  UNL1        0.1258
     20 C         140.5279  141.4150  166.9295 C.3     1  UNL1        0.1637
     21 O         140.5148  141.3720  168.4288 O.3     1  UNL1       -0.3501
     22 C         141.4274  140.4327  169.1601 C.3     1  UNL1        0.1637
     23 C         142.3532  139.5364  168.3921 C.3     1  UNL1        0.1258
     24 C         142.5285  136.4847  157.0510 C.ar    1  UNL1        0.0204
     25 C         143.2975  135.2034  157.1811 C.ar    1  UNL1        0.0015
     26 C         142.8832  133.9966  156.3926 C.ar    1  UNL1        0.0039
     27 C         141.6997  134.0709  155.4740 C.ar    1  UNL1        0.0714
     28 C         140.9306  135.3522  155.3439 C.ar    1  UNL1        0.0039
     29 C         141.3450  136.5590  156.1324 C.ar    1  UNL1        0.0015
     30 C         141.2854  132.8641  154.6855 C.3     1  UNL1        0.4186
     31 F         140.8710  131.6572  153.8969 F       1  UNL1       -0.1659
     32 F         141.6436  131.9832  155.8455 F       1  UNL1       -0.1659
     33 F         140.9271  133.7450  153.5255 F       1  UNL1       -0.1659
@<TRIPOS>BOND
     1     1     2    1
     2     2     3   ar
     3     3     4   ar
     4     4     5   ar
     5     5    10    1
     6    10    11   ar
     7    11    12   ar
     8    12    13   ar
     9    13    16    1
    10    16    17    2
    11    16    18   am
    12    18    19    1
    13    19    20    1
    14    20    21    1
    15    21    22    1
    16    22    23    1
    17    13    14   ar
    18    14    15   ar
    19     5     6   ar
    20     6     7   ar
    21     7    24    1
    22    24    25   ar
    23    25    26   ar
    24    26    27   ar
    25    27    30    1
    26    30    31    1
    27    30    32    1
    28    30    33    1
    29    27    28   ar
    30    28    29   ar
    31     7     2   ar
    32    29    24   ar
    33    15    10   ar
    34    23    18    1
    35     1     8    1
    36     1     9    1
@<TRIPOS>MOLECULE
*****
 33 36 0 0 0
SMALL
GASTEIGER

@<TRIPOS>ATOM
      1 N         137.9370  144.4165  164.9396 N.pl3   1  UNL1       -0.3414
      2 C         138.7708  143.8967  163.8062 C.ar    1  UNL1        0.1432
      3 N         138.6714  144.5300  162.4501 N.ar    1  UNL1       -0.2265
      4 C         139.5051  144.0103  161.3166 C.ar    1  UNL1        0.1193
      5 C         140.4383  142.8573  161.5393 C.ar    1  UNL1        0.1005
      6 N         140.5378  142.2240  162.8953 N.ar    1  UNL1       -0.2410
      7 C         139.7040  142.7437  164.0288 C.ar    1  UNL1        0.1123
      8 H         137.3245  145.1733  164.7935 H       1  UNL1        0.1438
      9 H         138.0023  144.0008  165.8297 H       1  UNL1        0.1438
     10 C         141.2721  142.3375  160.4058 C.ar    1  UNL1        0.0192
     11 C         141.1667  142.9656  159.0477 C.ar    1  UNL1        0.0017
     12 C         142.0004  142.4458  157.9143 C.ar    1  UNL1        0.0046
     13 C         142.9396  141.2981  158.1389 C.ar    1  UNL1        0.0536
     14 C         143.0451  140.6700  159.4970 C.ar    1  UNL1        0.0046
     15 C         142.2113  141.1898  160.6304 C.ar    1  UNL1        0.0017
     16 C         143.7734  140.7783  157.0055 C.2     1  UNL1        0.2492
     17 O         143.2330  139.7052  156.1075 O.2     1  UNL1       -0.2699
     18 N         145.1475  141.3317  156.7700 N.am    1  UNL1       -0.2709
     19 C         145.6880  142.4048  157.6680 C.3     1  UNL1        0.1258
     20 C         147.0621  142.9582  157.4325 C.3     1  UNL1        0.1637
     21 O         147.8959  142.4385  156.2991 O.3     1  UNL1       -0.3501
     22 C         147.3555  141.3654  155.4011 C.3     1  UNL1        0.1637
     23 C         145.9813  140.8120  155.6366 C.3     1  UNL1        0.1258
     24 C         139.8035  142.1103  165.3849 C.ar    1  UNL1        0.0204
     25 C         140.5219  142.8208  166.4936 C.ar    1  UNL1        0.0015
     26 C         140.6213  142.1875  167.8497 C.ar    1  UNL1        0.0039
     27 C         140.0024  140.8437  168.0972 C.ar    1  UNL1        0.0714
     28 C         139.2840  140.1332  166.9885 C.ar    1  UNL1        0.0039
     29 C         139.1846  140.7666  165.6323 C.ar    1  UNL1        0.0015
     30 C         140.1019  140.2104  169.4532 C.3     1  UNL1        0.4186
     31 F         140.2014  139.5771  170.8093 F       1  UNL1       -0.1659
     32 F         138.8437  140.9109  169.8727 F       1  UNL1       -0.1659
     33 F         141.3602  139.5099  169.0338 F       1  UNL1       -0.1659
@<TRIPOS>BOND
     1     1     2    1
     2     2     3   ar
     3     3     4   ar
     4     4     5   ar
     5     5    10    1
     6    10    11   ar
     7    11    12   ar
     8    12    13   ar
     9    13    16    1
    10    16    17    2
    11    16    18   am
    12    18    19    1
    13    19    20    1
    14    20    21    1
    15    21    22    1
    16    22    23    1
    17    13    14   ar
    18    14    15   ar
    19     5     6   ar
    20     6     7   ar
    21     7    24    1
    22    24    25   ar
    23    25    26   ar
    24    26    27   ar
    25    27    30    1
    26    30    31    1
    27    30    32    1
    28    30    33    1
    29    27    28   ar
    30    28    29   ar
    31     7     2   ar
    32    29    24   ar
    33    15    10   ar
    34    23    18    1
    35     1     8    1
    36     1     9    1
@<TRIPOS>MOLECULE
*****
 33 36 0 0 0
SMALL
GASTEIGER

@<TRIPOS>ATOM
      1 N         143.7986  137.0803  154.6032 N.pl3   1  UNL1       -0.3414
      2 C         143.4922  137.5865  155.9816 C.ar    1  UNL1        0.1432
      3 N         143.7163  139.0311  156.3171 N.ar    1  UNL1       -0.2265
      4 C         143.4099  139.5372  157.6955 C.ar    1  UNL1        0.1193
      5 C         142.8793  138.5987  158.7383 C.ar    1  UNL1        0.1005
      6 N         142.6551  137.1540  158.4028 N.ar    1  UNL1       -0.2410
      7 C         142.9615  136.6479  157.0244 C.ar    1  UNL1        0.1123
      8 H         144.1469  137.6964  153.9187 H       1  UNL1        0.1438
      9 H         143.6515  136.1321  154.3829 H       1  UNL1        0.1438
     10 C         142.5728  139.1048  160.1167 C.ar    1  UNL1        0.0192
     11 C         141.3701  138.5938  160.8531 C.ar    1  UNL1        0.0017
     12 C         141.0636  139.0999  162.2315 C.ar    1  UNL1        0.0046
     13 C         141.9599  140.1170  162.8735 C.ar    1  UNL1        0.0536
     14 C         143.1626  140.6280  162.1371 C.ar    1  UNL1        0.0046
     15 C         143.4691  140.1219  160.7587 C.ar    1  UNL1        0.0017
     16 C         141.6535  140.6231  164.2519 C.2     1  UNL1        0.2492
     17 O         140.7626  141.8164  164.4318 O.2     1  UNL1       -0.2699
     18 N         142.2379  139.9360  165.4503 N.am    1  UNL1       -0.2709
     19 C         143.1289  138.7427  165.2703 C.3     1  UNL1        0.1258
     20 C         143.7134  138.0556  166.4687 C.3     1  UNL1        0.1637
     21 O         143.4069  138.5617  167.8471 O.3     1  UNL1       -0.3501
     22 C         142.5160  139.7550  168.0271 C.3     1  UNL1        0.1637
     23 C         141.9315  140.4421  166.8286 C.3     1  UNL1        0.1258
     24 C         142.7373  135.2032  156.6888 C.ar    1  UNL1        0.0204
     25 C         143.5726  134.1429  157.3432 C.ar    1  UNL1        0.0015
     26 C         143.3484  132.6982  157.0077 C.ar    1  UNL1        0.0039
     27 C         142.2890  132.3137  156.0178 C.ar    1  UNL1        0.0714
     28 C         141.4537  133.3740  155.3635 C.ar    1  UNL1        0.0039
     29 C         141.6779  134.8187  155.6990 C.ar    1  UNL1        0.0015
     30 C         142.0648  130.8690  155.6823 C.3     1  UNL1        0.4186
     31 F         141.8406  129.4244  155.3468 F       1  UNL1       -0.1659
     32 F         140.7492  131.2194  155.0527 F       1  UNL1       -0.1659
     33 F         143.3804  130.5187  156.3119 F       1  UNL1       -0.1659
@<TRIPOS>BOND
     1     1     2    1
     2     2     3   ar
     3     3     4   ar
     4     4     5   ar
     5     5    10    1
     6    10    11   ar
     7    11    12   ar
     8    12    13   ar
     9    13    16    1
    10    16    17    2
    11    16    18   am
    12    18    19    1
    13    19    20    1
    14    20    21    1
    15    21    22    1
    16    22    23    1
    17    13    14   ar
    18    14    15   ar
    19     5     6   ar
    20     6     7   ar
    21     7    24    1
    22    24    25   ar
    23    25    26   ar
    24    26    27   ar
    25    27    30    1
    26    30    31    1
    27    30    32    1
    28    30    33    1
    29    27    28   ar
    30    28    29   ar
    31     7     2   ar
    32    29    24   ar
    33    15    10   ar
    34    23    18    1
    35     1     8    1
    36     1     9    1
@<TRIPOS>MOLECULE
*****
 33 36 0 0 0
SMALL
GASTEIGER

@<TRIPOS>ATOM
      1 N         143.7595  144.9075  164.1692 N.pl3   1  UNL1       -0.3414
      2 C         143.2650  143.9281  163.1463 C.ar    1  UNL1        0.1432
      3 N         143.7374  144.0243  161.7259 N.ar    1  UNL1       -0.2265
      4 C         143.2429  143.0449  160.7031 C.ar    1  UNL1        0.1193
      5 C         142.2761  141.9692  161.1006 C.ar    1  UNL1        0.1005
      6 N         141.8038  141.8729  162.5210 N.ar    1  UNL1       -0.2410
      7 C         142.2982  142.8524  163.5438 C.ar    1  UNL1        0.1123
      8 H         144.3940  145.6135  163.9083 H       1  UNL1        0.1438
      9 H         143.4494  144.8443  165.1014 H       1  UNL1        0.1438
     10 C         141.7817  140.9898  160.0777 C.ar    1  UNL1        0.0192
     11 C         142.0680  141.2160  158.6228 C.ar    1  UNL1        0.0017
     12 C         141.5735  140.2366  157.6000 C.ar    1  UNL1        0.0046
     13 C         140.7928  139.0309  158.0320 C.ar    1  UNL1        0.0536
     14 C         140.5065  138.8047  159.4869 C.ar    1  UNL1        0.0046
     15 C         141.0009  139.7841  160.5098 C.ar    1  UNL1        0.0017
     16 C         140.2983  138.0515  157.0091 C.2     1  UNL1        0.2492
     17 O         138.9127  138.1856  156.4507 O.2     1  UNL1       -0.2699
     18 N         141.1895  136.9380  156.5447 N.am    1  UNL1       -0.2709
     19 C         142.5753  136.8038  157.1032 C.3     1  UNL1        0.1258
     20 C         143.4665  135.6903  156.6387 C.3     1  UNL1        0.1637
     21 O         142.9721  134.7109  155.6159 O.3     1  UNL1       -0.3501
     22 C         141.5864  134.8450  155.0574 C.3     1  UNL1        0.1637
     23 C         140.6951  135.9586  155.5219 C.3     1  UNL1        0.1258
     24 C         141.8258  142.7560  164.9643 C.ar    1  UNL1        0.0204
     25 C         140.4717  143.2798  165.3415 C.ar    1  UNL1        0.0015
     26 C         139.9993  143.1835  166.7618 C.ar    1  UNL1        0.0039
     27 C         140.8809  142.5634  167.8051 C.ar    1  UNL1        0.0714
     28 C         142.2349  142.0397  167.4279 C.ar    1  UNL1        0.0039
     29 C         142.7074  142.1360  166.0075 C.ar    1  UNL1        0.0015
     30 C         140.4085  142.4671  169.2255 C.3     1  UNL1        0.4186
     31 F         139.9360  142.3708  170.6458 F       1  UNL1       -0.1659
     32 F         141.1800  143.7075  169.5662 F       1  UNL1       -0.1659
     33 F         139.6369  141.2268  168.8847 F       1  UNL1       -0.1659
@<TRIPOS>BOND
     1     1     2    1
     2     2     3   ar
     3     3     4   ar
     4     4     5   ar
     5     5    10    1
     6    10    11   ar
     7    11    12   ar
     8    12    13   ar
     9    13    16    1
    10    16    17    2
    11    16    18   am
    12    18    19    1
    13    19    20    1
    14    20    21    1
    15    21    22    1
    16    22    23    1
    17    13    14   ar
    18    14    15   ar
    19     5     6   ar
    20     6     7   ar
    21     7    24    1
    22    24    25   ar
    23    25    26   ar
    24    26    27   ar
    25    27    30    1
    26    30    31    1
    27    30    32    1
    28    30    33    1
    29    27    28   ar
    30    28    29   ar
    31     7     2   ar
    32    29    24   ar
    33    15    10   ar
    34    23    18    1
    35     1     8    1
    36     1     9    1
@<TRIPOS>MOLECULE
*****
 33 36 0 0 0
SMALL
GASTEIGER

@<TRIPOS>ATOM
      1 N         146.0695  141.6012  164.1287 N.pl3   1  UNL1       -0.3414
      2 C         144.9049  141.5828  163.1834 C.ar    1  UNL1        0.1432
      3 N         145.1286  141.7834  161.7139 N.ar    1  UNL1       -0.2265
      4 C         143.9641  141.7651  160.7686 C.ar    1  UNL1        0.1193
      5 C         142.5759  141.5461  161.2929 C.ar    1  UNL1        0.1005
      6 N         142.3522  141.3455  162.7624 N.ar    1  UNL1       -0.2410
      7 C         143.5167  141.3638  163.7077 C.ar    1  UNL1        0.1123
      8 H         146.9806  141.7449  163.7846 H       1  UNL1        0.1438
      9 H         145.9226  141.4695  165.0932 H       1  UNL1        0.1438
     10 C         141.4114  141.5277  160.3476 C.ar    1  UNL1        0.0192
     11 C         140.1283  142.2068  160.7250 C.ar    1  UNL1        0.0017
     12 C         138.9637  142.1884  159.7797 C.ar    1  UNL1        0.0046
     13 C         139.0823  141.4910  158.4570 C.ar    1  UNL1        0.0536
     14 C         140.3654  140.8120  158.0796 C.ar    1  UNL1        0.0046
     15 C         141.5300  140.8304  159.0249 C.ar    1  UNL1        0.0017
     16 C         137.9178  141.4727  157.5118 C.2     1  UNL1        0.2492
     17 O         136.8875  140.3872  157.6120 O.2     1  UNL1       -0.2699
     18 N         137.7836  142.5398  156.4662 N.am    1  UNL1       -0.2709
     19 C         138.8139  143.6254  156.3660 C.3     1  UNL1        0.1258
     20 C         138.6797  144.6925  155.3204 C.3     1  UNL1        0.1637
     21 O         137.5152  144.6742  154.3752 O.3     1  UNL1       -0.3501
     22 C         136.4849  143.5887  154.4754 C.3     1  UNL1        0.1637
     23 C         136.6191  142.5215  155.5210 C.3     1  UNL1        0.1258
     24 C         143.2930  141.1632  165.1774 C.ar    1  UNL1        0.0204
     25 C         143.0518  139.7849  165.7180 C.ar    1  UNL1        0.0015
     26 C         142.8281  139.5843  167.1875 C.ar    1  UNL1        0.0039
     27 C         142.8456  140.7619  168.1165 C.ar    1  UNL1        0.0714
     28 C         143.0868  142.1401  167.5759 C.ar    1  UNL1        0.0039
     29 C         143.3105  142.3408  166.1063 C.ar    1  UNL1        0.0015
     30 C         142.6218  140.5612  169.5861 C.3     1  UNL1        0.4186
     31 F         142.3981  140.3605  171.0556 F       1  UNL1       -0.1659
     32 F         141.4878  139.6265  169.2858 F       1  UNL1       -0.1659
     33 F         143.7559  141.4959  169.8864 F       1  UNL1       -0.1659
@<TRIPOS>BOND
     1     1     2    1
     2     2     3   ar
     3     3     4   ar
     4     4     5   ar
     5     5    10    1
     6    10    11   ar
     7    11    12   ar
     8    12    13   ar
     9    13    16    1
    10    16    17    2
    11    16    18   am
    12    18    19    1
    13    19    20    1
    14    20    21    1
    15    21    22    1
    16    22    23    1
    17    13    14   ar
    18    14    15   ar
    19     5     6   ar
    20     6     7   ar
    21     7    24    1
    22    24    25   ar
    23    25    26   ar
    24    26    27   ar
    25    27    30    1
    26    30    31    1
    27    30    32    1
    28    30    33    1
    29    27    28   ar
    30    28    29   ar
    31     7     2   ar
    32    29    24   ar
    33    15    10   ar
    34    23    18    1
    35     1     8    1
    36     1     9    1
