@<TRIPOS>MOLECULE
*****
 35 39 0 0 0
SMALL
GASTEIGER

@<TRIPOS>ATOM
      1 N         139.7877  142.4602  160.7990 N.3     1  UNL1       -0.2674
      2 C         138.8830  142.5731  161.9902 C.3     1  UNL1        0.0940
      3 C         138.6151  141.3700  162.8451 C.3     1  UNL1        0.1107
      4 N         139.2518  140.0541  162.5089 N.am    1  UNL1       -0.2764
      5 C         138.9839  138.8511  163.3638 C.2     1  UNL1        0.2302
      6 O         139.6205  137.5352  163.0276 O.2     1  UNL1       -0.2745
      7 C         140.1564  139.9412  161.3177 C.3     1  UNL1        0.1107
      8 C         140.4244  141.1442  160.4627 C.3     1  UNL1        0.0940
      9 C         140.0556  143.6632  159.9440 C.3     1  UNL1        0.1067
     10 C         141.2769  144.4994  160.1876 C.3     1  UNL1        0.1531
     11 C         142.1197  144.2593  161.4051 C.ar    1  UNL1        0.0018
     12 C         141.8119  144.9795  162.6842 C.ar    1  UNL1       -0.0020
     13 C         142.6547  144.7395  163.9016 C.ar    1  UNL1        0.0060
     14 C         143.8053  143.7791  163.8398 C.ar    1  UNL1        0.0748
     15 C         144.1130  143.0587  162.5606 C.ar    1  UNL1        0.0233
     16 C         143.2703  143.2988  161.3432 C.ar    1  UNL1       -0.0238
     17 C         143.5780  142.5785  160.0639 C.3     1  UNL1        0.0306
     18 C         145.3027  142.1769  162.7998 C.3     1  UNL1        0.2352
     19 O         145.7301  142.3523  164.2268 O.3     1  UNL1       -0.4404
     20 C         144.8047  143.3425  164.8696 C.2     1  UNL1        0.3413
     21 O         144.8677  143.8133  166.2924 O.2     1  UNL1       -0.2449
     22 C         142.1066  145.2108  157.8306 C.3     1  UNL1        0.1745
     23 O         141.6553  145.5757  159.2138 O.3     1  UNL1       -0.3478
     24 C         138.0792  138.9639  164.5550 C.3     1  UNL1        0.1131
     25 C         138.6243  139.4423  165.8681 C.ar    1  UNL1        0.0062
     26 C         139.7846  140.3924  165.8969 C.ar    1  UNL1        0.0009
     27 C         140.3297  140.8708  167.2099 C.ar    1  UNL1        0.0386
     28 C         139.7145  140.3991  168.4940 C.ar    1  UNL1        0.1672
     29 N         138.5541  139.4490  168.4651 N.ar    1  UNL1       -0.2252
     30 C         138.0090  138.9706  167.1522 C.ar    1  UNL1        0.0968
     31 N         140.2595  140.8775  169.8071 N.ar    1  UNL1       -0.1708
     32 C         141.5492  140.4424  170.4376 C.ar    1  UNL1        0.2272
     33 N         141.6972  141.1710  171.7403 N.ar    1  UNL1       -0.1044
     34 N         140.4991  142.0563  171.9150 N.ar    1  UNL1       -0.0222
     35 N         139.6105  141.8749  170.7203 N.ar    1  UNL1       -0.0371
@<TRIPOS>BOND
     1    22    23    1
     2    23    10    1
     3    10     9    1
     4     9     1    1
     5     1     2    1
     6     2     3    1
     7     3     4    1
     8     4     5   am
     9     5     6    2
    10     5    24    1
    11    24    25    1
    12    25    26   ar
    13    26    27   ar
    14    27    28   ar
    15    28    31    1
    16    31    32   ar
    17    32    33   ar
    18    33    34   ar
    19    34    35   ar
    20    28    29   ar
    21    29    30   ar
    22     4     7    1
    23     7     8    1
    24    10    11    1
    25    11    12   ar
    26    12    13   ar
    27    13    14   ar
    28    14    15   ar
    29    15    16   ar
    30    16    17    1
    31    15    18    1
    32    18    19    1
    33    19    20    1
    34    20    21    2
    35     8     1    1
    36    16    11   ar
    37    30    25   ar
    38    20    14    1
    39    35    31   ar
@<TRIPOS>MOLECULE
*****
 35 39 0 0 0
SMALL
GASTEIGER

@<TRIPOS>ATOM
      1 N         142.6251  141.5474  161.0211 N.3     1  UNL1       -0.2674
      2 C         143.1749  141.5271  162.4165 C.3     1  UNL1        0.0940
      3 C         142.8931  140.3609  163.3167 C.3     1  UNL1        0.1107
      4 N         142.0615  139.2150  162.8216 N.am    1  UNL1       -0.2764
      5 C         141.7797  138.0488  163.7219 C.2     1  UNL1        0.2302
      6 O         140.9480  136.9028  163.2268 O.2     1  UNL1       -0.2745
      7 C         141.5116  139.2352  161.4262 C.3     1  UNL1        0.1107
      8 C         141.7934  140.4014  160.5259 C.3     1  UNL1        0.0940
      9 C         142.9068  142.7136  160.1208 C.3     1  UNL1        0.1067
     10 C         142.1540  143.9985  160.3000 C.3     1  UNL1        0.1531
     11 C         141.3053  144.2067  161.5193 C.ar    1  UNL1        0.0018
     12 C         141.8797  144.8885  162.7255 C.ar    1  UNL1       -0.0020
     13 C         141.0310  145.0966  163.9446 C.ar    1  UNL1        0.0060
     14 C         139.6078  144.6230  163.9575 C.ar    1  UNL1        0.0748
     15 C         139.0333  143.9412  162.7513 C.ar    1  UNL1        0.0233
     16 C         139.8820  143.7330  161.5321 C.ar    1  UNL1       -0.0238
     17 C         139.3076  143.0512  160.3257 C.3     1  UNL1        0.0306
     18 C         137.6083  143.5848  163.0550 C.3     1  UNL1        0.2352
     19 O         137.3021  144.0463  164.4490 O.3     1  UNL1       -0.4404
     20 C         138.5379  144.6880  165.0068 C.2     1  UNL1        0.3413
     21 O         138.6789  145.2890  166.3738 O.2     1  UNL1       -0.2449
     22 C         141.0777  145.3650  158.3701 C.3     1  UNL1        0.1745
     23 O         142.2499  145.0753  159.2602 O.3     1  UNL1       -0.3478
     24 C         142.3295  138.0285  165.1174 C.3     1  UNL1        0.1131
     25 C         141.8177  138.9998  166.1394 C.ar    1  UNL1        0.0062
     26 C         142.7050  139.4404  167.2657 C.ar    1  UNL1        0.0009
     27 C         142.1932  140.4117  168.2878 C.ar    1  UNL1        0.0386
     28 C         140.7941  140.9424  168.1835 C.ar    1  UNL1        0.1672
     29 N         139.9068  140.5018  167.0572 N.ar    1  UNL1       -0.2252
     30 C         140.4186  139.5305  166.0352 C.ar    1  UNL1        0.0968
     31 N         140.2822  141.9138  169.2056 N.ar    1  UNL1       -0.1708
     32 C         140.5907  143.3807  169.2600 C.ar    1  UNL1        0.2272
     33 N         139.8711  143.9621  170.4407 N.ar    1  UNL1       -0.1044
     34 N         139.1179  142.8546  171.1159 N.ar    1  UNL1       -0.0222
     35 N         139.3719  141.5886  170.3526 N.ar    1  UNL1       -0.0371
@<TRIPOS>BOND
     1    22    23    1
     2    23    10    1
     3    10     9    1
     4     9     1    1
     5     1     2    1
     6     2     3    1
     7     3     4    1
     8     4     5   am
     9     5     6    2
    10     5    24    1
    11    24    25    1
    12    25    26   ar
    13    26    27   ar
    14    27    28   ar
    15    28    31    1
    16    31    32   ar
    17    32    33   ar
    18    33    34   ar
    19    34    35   ar
    20    28    29   ar
    21    29    30   ar
    22     4     7    1
    23     7     8    1
    24    10    11    1
    25    11    12   ar
    26    12    13   ar
    27    13    14   ar
    28    14    15   ar
    29    15    16   ar
    30    16    17    1
    31    15    18    1
    32    18    19    1
    33    19    20    1
    34    20    21    2
    35     8     1    1
    36    16    11   ar
    37    30    25   ar
    38    20    14    1
    39    35    31   ar
@<TRIPOS>MOLECULE
*****
 35 39 0 0 0
SMALL
GASTEIGER

@<TRIPOS>ATOM
      1 N         142.4279  142.2065  159.9454 N.3     1  UNL1       -0.2674
      2 C         141.9788  141.0272  160.7562 C.3     1  UNL1        0.0940
      3 C         142.8216  140.5356  161.8955 C.3     1  UNL1        0.1107
      4 N         144.1135  141.2234  162.2239 N.am    1  UNL1       -0.2764
      5 C         144.9563  140.7317  163.3632 C.2     1  UNL1        0.2302
      6 O         146.2482  141.4195  163.6917 O.2     1  UNL1       -0.2745
      7 C         144.5627  142.4027  161.4131 C.3     1  UNL1        0.1107
      8 C         143.7199  142.8943  160.2738 C.3     1  UNL1        0.0940
      9 C         141.5852  142.6982  158.8061 C.3     1  UNL1        0.1067
     10 C         140.4636  143.6604  159.0635 C.3     1  UNL1        0.1531
     11 C         139.9651  143.8744  160.4621 C.ar    1  UNL1        0.0018
     12 C         140.4872  145.0200  161.2773 C.ar    1  UNL1       -0.0020
     13 C         139.9887  145.2340  162.6758 C.ar    1  UNL1        0.0060
     14 C         138.9681  144.3022  163.2590 C.ar    1  UNL1        0.0748
     15 C         138.4459  143.1565  162.4437 C.ar    1  UNL1        0.0233
     16 C         138.9444  142.9426  161.0452 C.ar    1  UNL1       -0.0238
     17 C         138.4222  141.7969  160.2298 C.3     1  UNL1        0.0306
     18 C         137.4503  142.4084  163.2798 C.3     1  UNL1        0.2352
     19 O         137.3572  143.0917  164.6119 O.3     1  UNL1       -0.4404
     20 C         138.2952  144.2622  164.5990 C.2     1  UNL1        0.3413
     21 O         138.5208  145.2237  165.7280 O.2     1  UNL1       -0.2449
     22 C         140.2731  145.8130  157.6213 C.3     1  UNL1        0.1745
     23 O         139.8406  144.4086  157.9225 O.3     1  UNL1       -0.3478
     24 C         144.5072  139.5524  164.1741 C.3     1  UNL1        0.1131
     25 C         143.7800  139.7654  165.4686 C.ar    1  UNL1        0.0062
     26 C         143.1442  141.0919  165.7621 C.ar    1  UNL1        0.0009
     27 C         142.4170  141.3050  167.0566 C.ar    1  UNL1        0.0386
     28 C         142.3257  140.1917  168.0577 C.ar    1  UNL1        0.1672
     29 N         142.9616  138.8652  167.7642 N.ar    1  UNL1       -0.2252
     30 C         143.6887  138.6520  166.4697 C.ar    1  UNL1        0.0968
     31 N         141.5985  140.4047  169.3523 N.ar    1  UNL1       -0.1708
     32 C         141.9933  141.3610  170.4383 C.ar    1  UNL1        0.2272
     33 N         140.9877  141.2461  171.5453 N.ar    1  UNL1       -0.1044
     34 N         139.9713  140.2187  171.1433 N.ar    1  UNL1       -0.0222
     35 N         140.3488  139.6987  169.7880 N.ar    1  UNL1       -0.0371
@<TRIPOS>BOND
     1    22    23    1
     2    23    10    1
     3    10     9    1
     4     9     1    1
     5     1     2    1
     6     2     3    1
     7     3     4    1
     8     4     5   am
     9     5     6    2
    10     5    24    1
    11    24    25    1
    12    25    26   ar
    13    26    27   ar
    14    27    28   ar
    15    28    31    1
    16    31    32   ar
    17    32    33   ar
    18    33    34   ar
    19    34    35   ar
    20    28    29   ar
    21    29    30   ar
    22     4     7    1
    23     7     8    1
    24    10    11    1
    25    11    12   ar
    26    12    13   ar
    27    13    14   ar
    28    14    15   ar
    29    15    16   ar
    30    16    17    1
    31    15    18    1
    32    18    19    1
    33    19    20    1
    34    20    21    2
    35     8     1    1
    36    16    11   ar
    37    30    25   ar
    38    20    14    1
    39    35    31   ar
@<TRIPOS>MOLECULE
*****
 35 39 0 0 0
SMALL
GASTEIGER

@<TRIPOS>ATOM
      1 N         140.9277  139.3917  160.5634 N.3     1  UNL1       -0.2674
      2 C         140.7695  138.6283  161.8449 C.3     1  UNL1        0.0940
      3 C         141.8130  138.7380  162.9168 C.3     1  UNL1        0.1107
      4 N         143.0146  139.6110  162.7072 N.am    1  UNL1       -0.2764
      5 C         144.0581  139.7207  163.7792 C.2     1  UNL1        0.2302
      6 O         145.2597  140.5937  163.5697 O.2     1  UNL1       -0.2745
      7 C         143.1728  140.3744  161.4257 C.3     1  UNL1        0.1107
      8 C         142.1293  140.2648  160.3538 C.3     1  UNL1        0.0940
      9 C         139.8842  139.2821  159.4914 C.3     1  UNL1        0.1067
     10 C         138.6963  140.1979  159.5046 C.3     1  UNL1        0.1531
     11 C         138.5312  141.1963  160.6119 C.ar    1  UNL1        0.0018
     12 C         137.6846  140.8611  161.8038 C.ar    1  UNL1       -0.0020
     13 C         137.5195  141.8594  162.9111 C.ar    1  UNL1        0.0060
     14 C         138.2011  143.1929  162.8265 C.ar    1  UNL1        0.0748
     15 C         139.0478  143.5281  161.6345 C.ar    1  UNL1        0.0233
     16 C         139.2129  142.5298  160.5272 C.ar    1  UNL1       -0.0238
     17 C         140.0596  142.8650  159.3352 C.3     1  UNL1        0.0306
     18 C         139.5931  144.9121  161.8277 C.3     1  UNL1        0.2352
     19 O         139.0834  145.4322  163.1390 O.3     1  UNL1       -0.4404
     20 C         138.2231  144.3697  163.7563 C.2     1  UNL1        0.3413
     21 O         137.5100  144.4670  165.0724 O.2     1  UNL1       -0.2449
     22 C         137.8028  140.9860  157.1958 C.3     1  UNL1        0.1745
     23 O         137.6735  140.1155  158.4104 O.3     1  UNL1       -0.3478
     24 C         143.9000  138.9573  165.0608 C.3     1  UNL1        0.1131
     25 C         143.2299  139.6000  166.2388 C.ar    1  UNL1        0.0062
     26 C         143.0548  138.8301  167.5142 C.ar    1  UNL1        0.0009
     27 C         142.3847  139.4728  168.6922 C.ar    1  UNL1        0.0386
     28 C         141.8896  140.8853  168.5949 C.ar    1  UNL1        0.1672
     29 N         142.0646  141.6552  167.3196 N.ar    1  UNL1       -0.2252
     30 C         142.7347  141.0126  166.1415 C.ar    1  UNL1        0.0968
     31 N         141.2194  141.5281  169.7730 N.ar    1  UNL1       -0.1708
     32 C         140.1542  142.5826  169.7144 C.ar    1  UNL1        0.2272
     33 N         139.7733  142.9353  171.1217 N.ar    1  UNL1       -0.1044
     34 N         140.6031  142.0989  172.0500 N.ar    1  UNL1       -0.0222
     35 N         141.4968  141.2292  171.2165 N.ar    1  UNL1       -0.0371
@<TRIPOS>BOND
     1    22    23    1
     2    23    10    1
     3    10     9    1
     4     9     1    1
     5     1     2    1
     6     2     3    1
     7     3     4    1
     8     4     5   am
     9     5     6    2
    10     5    24    1
    11    24    25    1
    12    25    26   ar
    13    26    27   ar
    14    27    28   ar
    15    28    31    1
    16    31    32   ar
    17    32    33   ar
    18    33    34   ar
    19    34    35   ar
    20    28    29   ar
    21    29    30   ar
    22     4     7    1
    23     7     8    1
    24    10    11    1
    25    11    12   ar
    26    12    13   ar
    27    13    14   ar
    28    14    15   ar
    29    15    16   ar
    30    16    17    1
    31    15    18    1
    32    18    19    1
    33    19    20    1
    34    20    21    2
    35     8     1    1
    36    16    11   ar
    37    30    25   ar
    38    20    14    1
    39    35    31   ar
@<TRIPOS>MOLECULE
*****
 35 39 0 0 0
SMALL
GASTEIGER

@<TRIPOS>ATOM
      1 N         138.3995  141.8364  162.5225 N.3     1  UNL1       -0.2674
      2 C         138.2567  142.2359  163.9612 C.3     1  UNL1        0.0940
      3 C         138.2700  141.1888  165.0352 C.3     1  UNL1        0.1107
      4 N         138.4261  139.7423  164.6704 N.am    1  UNL1       -0.2764
      5 C         138.4393  138.6952  165.7444 C.2     1  UNL1        0.2302
      6 O         138.5954  137.2487  165.3797 O.2     1  UNL1       -0.2745
      7 C         138.5689  139.3427  163.2317 C.3     1  UNL1        0.1107
      8 C         138.5556  140.3898  162.1577 C.3     1  UNL1        0.0940
      9 C         138.3863  142.8834  161.4485 C.3     1  UNL1        0.1067
     10 C         139.5846  143.7618  161.2425 C.3     1  UNL1        0.1531
     11 C         140.9283  143.3282  161.7492 C.ar    1  UNL1        0.0018
     12 C         141.7238  142.3094  160.9882 C.ar    1  UNL1       -0.0020
     13 C         143.0674  141.8759  161.4948 C.ar    1  UNL1        0.0060
     14 C         143.6156  142.4611  162.7625 C.ar    1  UNL1        0.0748
     15 C         142.8201  143.4799  163.5236 C.ar    1  UNL1        0.0233
     16 C         141.4764  143.9135  163.0169 C.ar    1  UNL1       -0.0238
     17 C         140.6809  144.9323  163.7780 C.3     1  UNL1        0.0306
     18 C         143.6130  143.8781  164.7330 C.3     1  UNL1        0.2352
     19 O         144.8985  143.1053  164.7194 O.3     1  UNL1       -0.4404
     20 C         144.9001  142.2296  163.5016 C.2     1  UNL1        0.3413
     21 O         145.9942  141.2877  163.0944 O.2     1  UNL1       -0.2449
     22 C         140.3247  145.3952  159.3626 C.3     1  UNL1        0.1745
     23 O         139.4394  145.0737  160.5300 O.3     1  UNL1       -0.3478
     24 C         138.2965  139.0947  167.1832 C.3     1  UNL1        0.1131
     25 C         139.3540  139.9337  167.8372 C.ar    1  UNL1        0.0062
     26 C         140.5295  140.4147  167.0392 C.ar    1  UNL1        0.0009
     27 C         141.5871  141.2537  167.6931 C.ar    1  UNL1        0.0386
     28 C         141.4692  141.6117  169.1450 C.ar    1  UNL1        0.1672
     29 N         140.2937  141.1306  169.9430 N.ar    1  UNL1       -0.2252
     30 C         139.2361  140.2916  169.2891 C.ar    1  UNL1        0.0968
     31 N         142.5268  142.4507  169.7990 N.ar    1  UNL1       -0.1708
     32 C         144.0090  142.2739  169.6513 C.ar    1  UNL1        0.2272
     33 N         144.6859  143.3278  170.4766 N.ar    1  UNL1       -0.1044
     34 N         143.6221  144.1559  171.1342 N.ar    1  UNL1       -0.0222
     35 N         142.2877  143.6138  170.7155 N.ar    1  UNL1       -0.0371
@<TRIPOS>BOND
     1    22    23    1
     2    23    10    1
     3    10     9    1
     4     9     1    1
     5     1     2    1
     6     2     3    1
     7     3     4    1
     8     4     5   am
     9     5     6    2
    10     5    24    1
    11    24    25    1
    12    25    26   ar
    13    26    27   ar
    14    27    28   ar
    15    28    31    1
    16    31    32   ar
    17    32    33   ar
    18    33    34   ar
    19    34    35   ar
    20    28    29   ar
    21    29    30   ar
    22     4     7    1
    23     7     8    1
    24    10    11    1
    25    11    12   ar
    26    12    13   ar
    27    13    14   ar
    28    14    15   ar
    29    15    16   ar
    30    16    17    1
    31    15    18    1
    32    18    19    1
    33    19    20    1
    34    20    21    2
    35     8     1    1
    36    16    11   ar
    37    30    25   ar
    38    20    14    1
    39    35    31   ar
@<TRIPOS>MOLECULE
*****
 35 39 0 0 0
SMALL
GASTEIGER

@<TRIPOS>ATOM
      1 N         138.8232  141.2825  160.1138 N.3     1  UNL1       -0.2674
      2 C         137.9444  141.2124  161.3275 C.3     1  UNL1        0.0940
      3 C         138.1676  140.1417  162.3540 C.3     1  UNL1        0.1107
      4 N         139.2695  139.1413  162.1670 N.am    1  UNL1       -0.2764
      5 C         139.4926  138.0706  163.1936 C.2     1  UNL1        0.2302
      6 O         140.5944  137.0702  163.0066 O.2     1  UNL1       -0.2745
      7 C         140.1482  139.2114  160.9534 C.3     1  UNL1        0.1107
      8 C         139.9251  140.2821  159.9268 C.3     1  UNL1        0.0940
      9 C         138.6001  142.3532  159.0872 C.3     1  UNL1        0.1067
     10 C         139.5850  143.4760  158.9483 C.3     1  UNL1        0.1531
     11 C         140.5931  143.7275  160.0303 C.ar    1  UNL1        0.0018
     12 C         140.2133  144.5342  161.2364 C.ar    1  UNL1       -0.0020
     13 C         141.2213  144.7858  162.3183 C.ar    1  UNL1        0.0060
     14 C         142.6092  144.2306  162.1941 C.ar    1  UNL1        0.0748
     15 C         142.9891  143.4239  160.9879 C.ar    1  UNL1        0.0233
     16 C         141.9811  143.1723  159.9060 C.ar    1  UNL1       -0.0238
     17 C         142.3609  142.3655  158.6997 C.3     1  UNL1        0.0306
     18 C         144.4221  143.0078  161.1409 C.3     1  UNL1        0.2352
     19 O         144.9278  143.5574  162.4417 O.3     1  UNL1       -0.4404
     20 C         143.8074  144.3132  163.0926 C.2     1  UNL1        0.3413
     21 O         143.8737  145.0262  164.4106 O.2     1  UNL1       -0.2449
     22 C         140.2850  145.6614  157.7301 C.3     1  UNL1        0.1745
     23 O         139.5618  144.3472  157.7275 O.3     1  UNL1       -0.3478
     24 C         138.6138  138.0004  164.4073 C.3     1  UNL1        0.1131
     25 C         139.0169  138.7079  165.6670 C.ar    1  UNL1        0.0062
     26 C         140.3015  139.4809  165.7148 C.ar    1  UNL1        0.0009
     27 C         140.7046  140.1885  166.9745 C.ar    1  UNL1        0.0386
     28 C         139.8231  140.1230  168.1864 C.ar    1  UNL1        0.1672
     29 N         138.5385  139.3500  168.1386 N.ar    1  UNL1       -0.2252
     30 C         138.1354  138.6425  166.8789 C.ar    1  UNL1        0.0968
     31 N         140.2262  140.8306  169.4462 N.ar    1  UNL1       -0.1708
     32 C         140.9812  142.1241  169.5280 C.ar    1  UNL1        0.2272
     33 N         141.1665  142.4617  170.9777 N.ar    1  UNL1       -0.1044
     34 N         140.5261  141.3768  171.7918 N.ar    1  UNL1       -0.0222
     35 N         139.9449  140.3687  170.8453 N.ar    1  UNL1       -0.0371
@<TRIPOS>BOND
     1    22    23    1
     2    23    10    1
     3    10     9    1
     4     9     1    1
     5     1     2    1
     6     2     3    1
     7     3     4    1
     8     4     5   am
     9     5     6    2
    10     5    24    1
    11    24    25    1
    12    25    26   ar
    13    26    27   ar
    14    27    28   ar
    15    28    31    1
    16    31    32   ar
    17    32    33   ar
    18    33    34   ar
    19    34    35   ar
    20    28    29   ar
    21    29    30   ar
    22     4     7    1
    23     7     8    1
    24    10    11    1
    25    11    12   ar
    26    12    13   ar
    27    13    14   ar
    28    14    15   ar
    29    15    16   ar
    30    16    17    1
    31    15    18    1
    32    18    19    1
    33    19    20    1
    34    20    21    2
    35     8     1    1
    36    16    11   ar
    37    30    25   ar
    38    20    14    1
    39    35    31   ar
@<TRIPOS>MOLECULE
*****
 35 39 0 0 0
SMALL
GASTEIGER

@<TRIPOS>ATOM
      1 N         140.9268  138.8598  160.1664 N.3     1  UNL1       -0.2674
      2 C         140.2679  138.3362  161.4080 C.3     1  UNL1        0.0940
      3 C         141.0338  138.2796  162.6965 C.3     1  UNL1        0.1107
      4 N         142.4585  138.7465  162.7433 N.am    1  UNL1       -0.2764
      5 C         143.2243  138.6898  164.0319 C.2     1  UNL1        0.2302
      6 O         144.6490  139.1568  164.0787 O.2     1  UNL1       -0.2745
      7 C         143.1174  139.2702  161.5017 C.3     1  UNL1        0.1107
      8 C         142.3516  139.3268  160.2132 C.3     1  UNL1        0.0940
      9 C         140.1610  138.9165  158.8779 C.3     1  UNL1        0.1067
     10 C         139.1957  140.0371  158.6278 C.3     1  UNL1        0.1531
     11 C         139.2812  141.2958  159.4393 C.ar    1  UNL1        0.0018
     12 C         140.2264  142.3873  159.0331 C.ar    1  UNL1       -0.0020
     13 C         140.3119  143.6460  159.8446 C.ar    1  UNL1        0.0060
     14 C         139.4521  143.8131  161.0623 C.ar    1  UNL1        0.0748
     15 C         138.5068  142.7215  161.4685 C.ar    1  UNL1        0.0233
     16 C         138.4213  141.4629  160.6571 C.ar    1  UNL1       -0.0238
     17 C         137.4761  140.3713  161.0633 C.3     1  UNL1        0.0306
     18 C         137.7895  143.1671  162.7083 C.3     1  UNL1        0.2352
     19 O         138.2915  144.5340  163.0682 O.3     1  UNL1       -0.4404
     20 C         139.3190  144.9332  162.0510 C.2     1  UNL1        0.3413
     21 O         140.0798  146.2257  162.0267 O.2     1  UNL1       -0.2449
     22 C         137.9542  140.9889  156.5535 C.3     1  UNL1        0.1745
     23 O         138.1449  139.8990  157.5663 O.3     1  UNL1       -0.3478
     24 C         142.5655  138.1662  165.2736 C.3     1  UNL1        0.1131
     25 C         142.0417  139.1215  166.3045 C.ar    1  UNL1        0.0062
     26 C         142.9202  139.5549  167.4405 C.ar    1  UNL1        0.0009
     27 C         142.3964  140.5102  168.4715 C.ar    1  UNL1        0.0386
     28 C         140.9941  141.0322  168.3665 C.ar    1  UNL1        0.1672
     29 N         140.1156  140.5989  167.2304 N.ar    1  UNL1       -0.2252
     30 C         140.6394  139.6436  166.1995 C.ar    1  UNL1        0.0968
     31 N         140.4701  141.9876  169.3974 N.ar    1  UNL1       -0.1708
     32 C         140.4284  143.4820  169.2743 C.ar    1  UNL1        0.2272
     33 N         139.8285  144.0342  170.5333 N.ar    1  UNL1       -0.1044
     34 N         139.4994  142.8811  171.4345 N.ar    1  UNL1       -0.0222
     35 N         139.8960  141.6163  170.7325 N.ar    1  UNL1       -0.0371
@<TRIPOS>BOND
     1    22    23    1
     2    23    10    1
     3    10     9    1
     4     9     1    1
     5     1     2    1
     6     2     3    1
     7     3     4    1
     8     4     5   am
     9     5     6    2
    10     5    24    1
    11    24    25    1
    12    25    26   ar
    13    26    27   ar
    14    27    28   ar
    15    28    31    1
    16    31    32   ar
    17    32    33   ar
    18    33    34   ar
    19    34    35   ar
    20    28    29   ar
    21    29    30   ar
    22     4     7    1
    23     7     8    1
    24    10    11    1
    25    11    12   ar
    26    12    13   ar
    27    13    14   ar
    28    14    15   ar
    29    15    16   ar
    30    16    17    1
    31    15    18    1
    32    18    19    1
    33    19    20    1
    34    20    21    2
    35     8     1    1
    36    16    11   ar
    37    30    25   ar
    38    20    14    1
    39    35    31   ar
@<TRIPOS>MOLECULE
*****
 35 39 0 0 0
SMALL
GASTEIGER

@<TRIPOS>ATOM
      1 N         143.0622  139.8040  160.1616 N.3     1  UNL1       -0.2674
      2 C         143.6451  139.5063  161.5113 C.3     1  UNL1        0.0940
      3 C         142.7846  138.9081  162.5845 C.3     1  UNL1        0.1107
      4 N         141.3412  138.6077  162.3080 N.am    1  UNL1       -0.2764
      5 C         140.4808  138.0096  163.3813 C.2     1  UNL1        0.2302
      6 O         139.0374  137.7092  163.1048 O.2     1  UNL1       -0.2745
      7 C         140.7583  138.9055  160.9584 C.3     1  UNL1        0.1107
      8 C         141.6188  139.5036  159.8851 C.3     1  UNL1        0.0940
      9 C         143.9226  140.4021  159.0884 C.3     1  UNL1        0.1067
     10 C         144.1281  141.8869  159.0324 C.3     1  UNL1        0.1531
     11 C         143.1417  142.8059  159.6903 C.ar    1  UNL1        0.0018
     12 C         141.8943  143.2118  158.9630 C.ar    1  UNL1       -0.0020
     13 C         140.9079  144.1307  159.6207 C.ar    1  UNL1        0.0060
     14 C         141.1691  144.6438  161.0058 C.ar    1  UNL1        0.0748
     15 C         142.4166  144.2379  161.7332 C.ar    1  UNL1        0.0233
     16 C         143.4029  143.3190  161.0754 C.ar    1  UNL1       -0.0238
     17 C         144.6505  142.9130  161.8027 C.3     1  UNL1        0.0306
     18 C         142.4039  144.8988  163.0797 C.3     1  UNL1        0.2352
     19 O         141.1486  145.7131  163.1845 O.3     1  UNL1       -0.4404
     20 C         140.3854  145.5555  161.9028 C.2     1  UNL1        0.3413
     21 O         139.0696  146.1970  161.5756 O.2     1  UNL1       -0.2449
     22 C         145.6907  141.9430  156.9576 C.3     1  UNL1        0.1745
     23 O         145.3199  142.4528  158.3187 O.3     1  UNL1       -0.3478
     24 C         141.0637  137.7118  164.7310 C.3     1  UNL1        0.1131
     25 C         141.1994  138.8065  165.7474 C.ar    1  UNL1        0.0062
     26 C         139.9897  139.5786  166.1841 C.ar    1  UNL1        0.0009
     27 C         140.1253  140.6733  167.2005 C.ar    1  UNL1        0.0386
     28 C         141.4706  140.9960  167.7803 C.ar    1  UNL1        0.1672
     29 N         142.6803  140.2240  167.3435 N.ar    1  UNL1       -0.2252
     30 C         142.5446  139.1292  166.3271 C.ar    1  UNL1        0.0968
     31 N         141.6064  142.0908  168.7967 N.ar    1  UNL1       -0.1708
     32 C         140.5129  143.0103  169.2536 C.ar    1  UNL1        0.2272
     33 N         141.0902  143.9459  170.2740 N.ar    1  UNL1       -0.1044
     34 N         142.5405  143.6046  170.4477 N.ar    1  UNL1       -0.0222
     35 N         142.8595  142.4581  169.5348 N.ar    1  UNL1       -0.0371
@<TRIPOS>BOND
     1    22    23    1
     2    23    10    1
     3    10     9    1
     4     9     1    1
     5     1     2    1
     6     2     3    1
     7     3     4    1
     8     4     5   am
     9     5     6    2
    10     5    24    1
    11    24    25    1
    12    25    26   ar
    13    26    27   ar
    14    27    28   ar
    15    28    31    1
    16    31    32   ar
    17    32    33   ar
    18    33    34   ar
    19    34    35   ar
    20    28    29   ar
    21    29    30   ar
    22     4     7    1
    23     7     8    1
    24    10    11    1
    25    11    12   ar
    26    12    13   ar
    27    13    14   ar
    28    14    15   ar
    29    15    16   ar
    30    16    17    1
    31    15    18    1
    32    18    19    1
    33    19    20    1
    34    20    21    2
    35     8     1    1
    36    16    11   ar
    37    30    25   ar
    38    20    14    1
    39    35    31   ar
@<TRIPOS>MOLECULE
*****
 35 39 0 0 0
SMALL
GASTEIGER

@<TRIPOS>ATOM
      1 N         140.6815  140.8059  159.2852 N.3     1  UNL1       -0.2674
      2 C         140.0569  140.0028  160.3874 C.3     1  UNL1        0.0940
      3 C         139.2119  140.6821  161.4240 C.3     1  UNL1        0.1107
      4 N         138.9915  142.1644  161.3584 N.am    1  UNL1       -0.2764
      5 C         138.1465  142.8436  162.3950 C.2     1  UNL1        0.2302
      6 O         137.9261  144.3259  162.3294 O.2     1  UNL1       -0.2745
      7 C         139.6161  142.9674  160.2562 C.3     1  UNL1        0.1107
      8 C         140.4611  142.2882  159.2195 C.3     1  UNL1        0.0940
      9 C         141.5265  140.1267  158.2486 C.3     1  UNL1        0.1067
     10 C         142.9667  139.8222  158.5368 C.3     1  UNL1        0.1531
     11 C         143.4530  139.7698  159.9549 C.ar    1  UNL1        0.0018
     12 C         143.3215  138.5026  160.7464 C.ar    1  UNL1       -0.0020
     13 C         143.8077  138.4501  162.1645 C.ar    1  UNL1        0.0060
     14 C         144.4255  139.6650  162.7909 C.ar    1  UNL1        0.0748
     15 C         144.5569  140.9323  161.9993 C.ar    1  UNL1        0.0233
     16 C         144.0707  140.9848  160.5813 C.ar    1  UNL1       -0.0238
     17 C         144.2021  142.2521  159.7897 C.3     1  UNL1        0.0306
     18 C         145.2037  141.9623  162.8773 C.3     1  UNL1        0.2352
     19 O         145.4720  141.3315  164.2115 O.3     1  UNL1       -0.4404
     20 C         144.9910  139.9117  164.1581 C.2     1  UNL1        0.3413
     21 O         145.0630  138.9138  165.2757 O.2     1  UNL1       -0.2449
     22 C         143.8180  140.3746  156.1451 C.3     1  UNL1        0.1745
     23 O         143.9207  139.5702  157.4070 O.3     1  UNL1       -0.3478
     24 C         137.5218  142.0406  163.4974 C.3     1  UNL1        0.1131
     25 C         138.3674  141.5336  164.6278 C.ar    1  UNL1        0.0062
     26 C         139.3756  142.4370  165.2738 C.ar    1  UNL1        0.0009
     27 C         140.2213  141.9301  166.4043 C.ar    1  UNL1        0.0386
     28 C         140.0586  140.5199  166.8888 C.ar    1  UNL1        0.1672
     29 N         139.0503  139.6165  166.2428 N.ar    1  UNL1       -0.2252
     30 C         138.2047  140.1234  165.1123 C.ar    1  UNL1        0.0968
     31 N         140.9042  140.0129  168.0193 N.ar    1  UNL1       -0.1708
     32 C         142.3530  139.6336  167.9355 C.ar    1  UNL1        0.2272
     33 N         142.7935  139.1825  169.2965 N.ar    1  UNL1       -0.1044
     34 N         141.6169  139.2830  170.2214 N.ar    1  UNL1       -0.0222
     35 N         140.4493  139.7962  169.4321 N.ar    1  UNL1       -0.0371
@<TRIPOS>BOND
     1    22    23    1
     2    23    10    1
     3    10     9    1
     4     9     1    1
     5     1     2    1
     6     2     3    1
     7     3     4    1
     8     4     5   am
     9     5     6    2
    10     5    24    1
    11    24    25    1
    12    25    26   ar
    13    26    27   ar
    14    27    28   ar
    15    28    31    1
    16    31    32   ar
    17    32    33   ar
    18    33    34   ar
    19    34    35   ar
    20    28    29   ar
    21    29    30   ar
    22     4     7    1
    23     7     8    1
    24    10    11    1
    25    11    12   ar
    26    12    13   ar
    27    13    14   ar
    28    14    15   ar
    29    15    16   ar
    30    16    17    1
    31    15    18    1
    32    18    19    1
    33    19    20    1
    34    20    21    2
    35     8     1    1
    36    16    11   ar
    37    30    25   ar
    38    20    14    1
    39    35    31   ar
