@<TRIPOS>MOLECULE
*****
 32 34 0 0 0
SMALL
GASTEIGER

@<TRIPOS>ATOM
      1 C         143.2477  140.3397  164.4255 C.3     1  UNL1        0.1143
      2 C         142.3081  139.2121  164.1160 C.3     1  UNL1        0.0690
      3 C         141.1669  138.2490  164.2579 C.3     1  UNL1        0.0485
      4 C         140.9324  137.2041  163.2076 C.3     1  UNL1        0.1436
      5 O         141.8392  137.1223  162.0154 O.3     1  UNL1       -0.3537
      6 C         142.9803  138.0854  161.8736 C.3     1  UNL1        0.1436
      7 C         143.2148  139.1303  162.9239 C.3     1  UNL1        0.0485
      8 N         141.7277  139.6856  165.4157 N.3     1  UNL1       -0.2710
      9 C         140.2479  139.8944  165.5445 C.3     1  UNL1        0.0896
     10 C         139.6676  140.3679  166.8441 C.3     1  UNL1        0.0897
     11 N         140.5671  140.6324  168.0150 N.3     1  UNL1       -0.2703
     12 C         142.0469  140.4236  167.8862 C.3     1  UNL1        0.0897
     13 C         142.6272  139.9502  166.5866 C.3     1  UNL1        0.0896
     14 C         139.9867  141.1059  169.3146 C.3     1  UNL1        0.0721
     15 C         140.6480  142.2207  170.0695 C.3     1  UNL1        0.0160
     16 C         140.4370  143.6434  169.6435 C.3     1  UNL1        0.0014
     17 C         141.5204  141.9128  171.2502 C.3     1  UNL1        0.0014
     18 C         144.3408  142.3926  163.2678 C.2     1  UNL1        0.2304
     19 O         145.7014  141.8304  163.5556 O.2     1  UNL1       -0.2745
     20 N         143.1140  141.6472  163.7028 N.am    1  UNL1       -0.2425
     21 C         141.7534  142.2095  163.4150 C.ar    1  UNL1        0.1373
     22 C         141.0832  141.9180  162.1051 C.ar    1  UNL1        0.0347
     23 C         139.7227  142.4802  161.8173 C.ar    1  UNL1        0.0044
     24 C         139.0324  143.3339  162.8395 C.ar    1  UNL1        0.0232
     25 C         139.7026  143.6253  164.1493 C.ar    1  UNL1        0.1540
     26 N         141.0631  143.0631  164.4372 N.ar    1  UNL1       -0.2263
     27 C         139.0122  144.4789  165.1715 C.3     1  UNL1        0.4349
     28 F         138.3219  145.3326  166.1937 F       1  UNL1       -0.1644
     29 F         139.8174  143.8294  166.2577 F       1  UNL1       -0.1644
     30 F         138.2071  145.1285  164.0853 F       1  UNL1       -0.1644
     31 C         143.9545  144.9614  163.3167 C.3     1  UNL1        0.0101
     32 C         144.2072  143.7002  162.5450 C.3     1  UNL1        0.0857
@<TRIPOS>BOND
     1    31    32    1
     2    32    18    1
     3    18    19    2
     4    18    20   am
     5    20     1    1
     6     1     2    1
     7     2     8    1
     8     8     9    1
     9     9    10    1
    10    10    11    1
    11    11    14    1
    12    14    15    1
    13    15    16    1
    14    15    17    1
    15    11    12    1
    16    12    13    1
    17     2     3    1
    18     3     4    1
    19     4     5    1
    20     5     6    1
    21     6     7    1
    22    20    21    1
    23    21    22   ar
    24    22    23   ar
    25    23    24   ar
    26    24    25   ar
    27    25    27    1
    28    27    28    1
    29    27    29    1
    30    27    30    1
    31    25    26   ar
    32     7     2    1
    33    26    21   ar
    34    13     8    1
@<TRIPOS>MOLECULE
*****
 32 34 0 0 0
SMALL
GASTEIGER

@<TRIPOS>ATOM
      1 C         139.7322  139.1697  164.4305 C.3     1  UNL1        0.1143
      2 C         139.6328  139.5434  165.8799 C.3     1  UNL1        0.0690
      3 C         139.9482  140.2004  167.1909 C.3     1  UNL1        0.0485
      4 C         139.1038  139.9119  168.3967 C.3     1  UNL1        0.1436
      5 O         137.9441  138.9663  168.2913 O.3     1  UNL1       -0.3537
      6 C         137.6288  138.3094  166.9803 C.3     1  UNL1        0.1436
      7 C         138.4731  138.5979  165.7745 C.3     1  UNL1        0.0485
      8 N         140.8271  140.3592  165.4818 N.3     1  UNL1       -0.2710
      9 C         140.9442  141.7857  165.9305 C.3     1  UNL1        0.0896
     10 C         142.1384  142.6014  165.5324 C.3     1  UNL1        0.0897
     11 N         143.2155  141.9905  164.6857 N.3     1  UNL1       -0.2703
     12 C         143.0983  140.5640  164.2371 C.3     1  UNL1        0.0897
     13 C         141.9041  139.7484  164.6352 C.3     1  UNL1        0.0896
     14 C         144.4098  142.8063  164.2877 C.3     1  UNL1        0.0721
     15 C         144.3199  143.7497  163.1250 C.3     1  UNL1        0.0160
     16 C         143.8905  145.1703  163.3432 C.3     1  UNL1        0.0014
     17 C         144.6594  143.2725  161.7440 C.3     1  UNL1        0.0014
     18 C         138.1584  139.0956  162.3648 C.2     1  UNL1        0.2304
     19 O         138.2699  137.6001  162.3335 O.2     1  UNL1       -0.2745
     20 N         138.8896  139.8804  163.4133 N.am    1  UNL1       -0.2425
     21 C         138.7781  141.3760  163.4445 C.ar    1  UNL1        0.1373
     22 C         137.7359  142.0326  164.3004 C.ar    1  UNL1        0.0347
     23 C         137.6245  143.5282  164.3316 C.ar    1  UNL1        0.0044
     24 C         138.5552  144.3670  163.5070 C.ar    1  UNL1        0.0232
     25 C         139.5974  143.7103  162.6511 C.ar    1  UNL1        0.1540
     26 N         139.7089  142.2148  162.6198 N.ar    1  UNL1       -0.2263
     27 C         140.5282  144.5491  161.8264 C.3     1  UNL1        0.4349
     28 F         141.4590  145.3879  161.0017 F       1  UNL1       -0.1644
     29 F         139.7469  145.7760  162.1927 F       1  UNL1       -0.1644
     30 F         141.3095  143.3221  161.4602 F       1  UNL1       -0.1644
     31 C         137.8586  140.0665  159.9736 C.3     1  UNL1        0.0101
     32 C         137.3158  139.8062  161.3475 C.3     1  UNL1        0.0857
@<TRIPOS>BOND
     1    31    32    1
     2    32    18    1
     3    18    19    2
     4    18    20   am
     5    20     1    1
     6     1     2    1
     7     2     8    1
     8     8     9    1
     9     9    10    1
    10    10    11    1
    11    11    14    1
    12    14    15    1
    13    15    16    1
    14    15    17    1
    15    11    12    1
    16    12    13    1
    17     2     3    1
    18     3     4    1
    19     4     5    1
    20     5     6    1
    21     6     7    1
    22    20    21    1
    23    21    22   ar
    24    22    23   ar
    25    23    24   ar
    26    24    25   ar
    27    25    27    1
    28    27    28    1
    29    27    29    1
    30    27    30    1
    31    25    26   ar
    32     7     2    1
    33    26    21   ar
    34    13     8    1
@<TRIPOS>MOLECULE
*****
 32 34 0 0 0
SMALL
GASTEIGER

@<TRIPOS>ATOM
      1 C         142.0616  142.7425  164.3743 C.3     1  UNL1        0.1143
      2 C         143.3790  142.0383  164.2377 C.3     1  UNL1        0.0690
      3 C         144.5325  141.1328  164.5528 C.3     1  UNL1        0.0485
      4 C         145.7002  141.0516  163.6147 C.3     1  UNL1        0.1436
      5 O         145.7142  141.8759  162.3615 O.3     1  UNL1       -0.3537
      6 C         144.5607  142.7814  162.0465 C.3     1  UNL1        0.1436
      7 C         143.3930  142.8626  162.9845 C.3     1  UNL1        0.0485
      8 N         142.9074  141.4586  165.5384 N.3     1  UNL1       -0.2710
      9 C         142.3298  142.3549  166.5933 C.3     1  UNL1        0.0896
     10 C         141.8582  141.7751  167.8939 C.3     1  UNL1        0.0897
     11 N         141.9643  140.2992  168.1395 N.3     1  UNL1       -0.2703
     12 C         142.5419  139.4030  167.0845 C.3     1  UNL1        0.0897
     13 C         143.0134  139.9827  165.7839 C.3     1  UNL1        0.0896
     14 C         141.4927  139.7195  169.4401 C.3     1  UNL1        0.0721
     15 C         140.4545  140.4388  170.2493 C.3     1  UNL1        0.0160
     16 C         139.0071  140.3437  169.8671 C.3     1  UNL1        0.0014
     17 C         140.8637  141.2532  171.4406 C.3     1  UNL1        0.0014
     18 C         140.0778  143.2352  162.7707 C.2     1  UNL1        0.2304
     19 O         140.4733  144.6815  162.7258 O.2     1  UNL1       -0.2745
     20 N         140.8720  142.2658  163.5950 N.am    1  UNL1       -0.2425
     21 C         140.4764  140.8195  163.6400 C.ar    1  UNL1        0.1373
     22 C         140.9702  139.8739  162.5856 C.ar    1  UNL1        0.0347
     23 C         140.5747  138.4276  162.6305 C.ar    1  UNL1        0.0044
     24 C         139.6854  137.9272  163.7299 C.ar    1  UNL1        0.0232
     25 C         139.1916  138.8729  164.7843 C.ar    1  UNL1        0.1540
     26 N         139.5871  140.3191  164.7394 N.ar    1  UNL1       -0.2263
     27 C         138.3023  138.3724  165.8838 C.3     1  UNL1        0.4349
     28 F         137.4130  137.8719  166.9832 F       1  UNL1       -0.1644
     29 F         138.6902  136.9612  165.5550 F       1  UNL1       -0.1644
     30 F         137.9144  139.7836  166.2124 F       1  UNL1       -0.1644
     31 C         137.5557  142.6201  162.6663 C.3     1  UNL1        0.0101
     32 C         138.8881  142.7585  161.9914 C.3     1  UNL1        0.0857
@<TRIPOS>BOND
     1    31    32    1
     2    32    18    1
     3    18    19    2
     4    18    20   am
     5    20     1    1
     6     1     2    1
     7     2     8    1
     8     8     9    1
     9     9    10    1
    10    10    11    1
    11    11    14    1
    12    14    15    1
    13    15    16    1
    14    15    17    1
    15    11    12    1
    16    12    13    1
    17     2     3    1
    18     3     4    1
    19     4     5    1
    20     5     6    1
    21     6     7    1
    22    20    21    1
    23    21    22   ar
    24    22    23   ar
    25    23    24   ar
    26    24    25   ar
    27    25    27    1
    28    27    28    1
    29    27    29    1
    30    27    30    1
    31    25    26   ar
    32     7     2    1
    33    26    21   ar
    34    13     8    1
@<TRIPOS>MOLECULE
*****
 32 34 0 0 0
SMALL
GASTEIGER

@<TRIPOS>ATOM
      1 C         141.5016  142.1823  163.0565 C.3     1  UNL1        0.1143
      2 C         142.9125  141.9239  163.4955 C.3     1  UNL1        0.0690
      3 C         144.0801  141.6444  164.3945 C.3     1  UNL1        0.0485
      4 C         145.4581  141.5154  163.8161 C.3     1  UNL1        0.1436
      5 O         145.6684  141.6660  162.3386 O.3     1  UNL1       -0.3537
      6 C         144.5007  141.9455  161.4395 C.3     1  UNL1        0.1436
      7 C         143.1228  142.0745  162.0179 C.3     1  UNL1        0.0485
      8 N         142.2121  141.8630  164.8206 N.3     1  UNL1       -0.2710
      9 C         141.1915  142.9025  165.1779 C.3     1  UNL1        0.0896
     10 C         140.4912  142.8416  166.5029 C.3     1  UNL1        0.0897
     11 N         140.8116  141.7413  167.4707 N.3     1  UNL1       -0.2703
     12 C         141.8323  140.7019  167.1135 C.3     1  UNL1        0.0897
     13 C         142.5326  140.7627  165.7884 C.3     1  UNL1        0.0896
     14 C         140.1113  141.6805  168.7959 C.3     1  UNL1        0.0721
     15 C         140.6181  142.4935  169.9500 C.3     1  UNL1        0.0160
     16 C         140.4573  143.9849  169.9449 C.3     1  UNL1        0.0014
     17 C         141.2857  141.8151  171.1094 C.3     1  UNL1        0.0014
     18 C         140.0578  141.2579  161.1044 C.2     1  UNL1        0.2304
     19 O         140.2385  142.5476  160.3601 O.2     1  UNL1       -0.2745
     20 N         140.6893  141.0753  162.4527 N.am    1  UNL1       -0.2425
     21 C         140.5086  139.7856  163.1970 C.ar    1  UNL1        0.1373
     22 C         141.3737  138.6042  162.8715 C.ar    1  UNL1        0.0347
     23 C         141.1929  137.3145  163.6159 C.ar    1  UNL1        0.0044
     24 C         140.1471  137.2063  164.6857 C.ar    1  UNL1        0.0232
     25 C         139.2820  138.3876  165.0111 C.ar    1  UNL1        0.1540
     26 N         139.4627  139.6773  164.2668 N.ar    1  UNL1       -0.2263
     27 C         138.2361  138.2794  166.0810 C.3     1  UNL1        0.4349
     28 F         137.1903  138.1711  167.1508 F       1  UNL1       -0.1644
     29 F         138.2575  139.7693  166.2526 F       1  UNL1       -0.1644
     30 F         138.2148  136.7894  165.9093 F       1  UNL1       -0.1644
     31 C         137.7850  140.0313  160.8210 C.3     1  UNL1        0.0101
     32 C         139.2455  140.1509  160.5005 C.3     1  UNL1        0.0857
@<TRIPOS>BOND
     1    31    32    1
     2    32    18    1
     3    18    19    2
     4    18    20   am
     5    20     1    1
     6     1     2    1
     7     2     8    1
     8     8     9    1
     9     9    10    1
    10    10    11    1
    11    11    14    1
    12    14    15    1
    13    15    16    1
    14    15    17    1
    15    11    12    1
    16    12    13    1
    17     2     3    1
    18     3     4    1
    19     4     5    1
    20     5     6    1
    21     6     7    1
    22    20    21    1
    23    21    22   ar
    24    22    23   ar
    25    23    24   ar
    26    24    25   ar
    27    25    27    1
    28    27    28    1
    29    27    29    1
    30    27    30    1
    31    25    26   ar
    32     7     2    1
    33    26    21   ar
    34    13     8    1
@<TRIPOS>MOLECULE
*****
 32 34 0 0 0
SMALL
GASTEIGER

@<TRIPOS>ATOM
      1 C         142.1763  139.5281  164.1240 C.3     1  UNL1        0.1143
      2 C         143.3617  140.4473  164.1322 C.3     1  UNL1        0.0690
      3 C         144.3851  141.4231  164.6324 C.3     1  UNL1        0.0485
      4 C         145.4630  141.9165  163.7133 C.3     1  UNL1        0.1436
      5 O         145.5174  141.4340  162.2941 O.3     1  UNL1       -0.3537
      6 C         144.4940  140.4582  161.7939 C.3     1  UNL1        0.1436
      7 C         143.4161  139.9648  162.7130 C.3     1  UNL1        0.0485
      8 N         142.8956  140.6105  165.5487 N.3     1  UNL1       -0.2710
      9 C         142.4315  141.9512  166.0357 C.3     1  UNL1        0.0896
     10 C         141.9654  142.1144  167.4521 C.3     1  UNL1        0.0897
     11 N         141.9634  140.9369  168.3814 N.3     1  UNL1       -0.2703
     12 C         142.4274  139.5963  167.8943 C.3     1  UNL1        0.0897
     13 C         142.8935  139.4331  166.4780 C.3     1  UNL1        0.0896
     14 C         141.4973  141.1002  169.7978 C.3     1  UNL1        0.0721
     15 C         140.0745  141.4824  170.0798 C.3     1  UNL1        0.0160
     16 C         138.9766  140.4777  169.8918 C.3     1  UNL1        0.0014
     17 C         139.7496  142.8693  170.5498 C.3     1  UNL1        0.0014
     18 C         140.4043  138.6087  162.4613 C.2     1  UNL1        0.2304
     19 O         140.8872  137.2121  162.7190 O.2     1  UNL1       -0.2745
     20 N         141.0489  139.7667  163.1638 N.am    1  UNL1       -0.2425
     21 C         140.5661  141.1633  162.9060 C.ar    1  UNL1        0.1373
     22 C         141.0442  141.9109  161.6967 C.ar    1  UNL1        0.0347
     23 C         140.5613  143.3075  161.4390 C.ar    1  UNL1        0.0044
     24 C         139.6004  143.9564  162.3906 C.ar    1  UNL1        0.0232
     25 C         139.1224  143.2088  163.5999 C.ar    1  UNL1        0.1540
     26 N         139.6051  141.8122  163.8576 N.ar    1  UNL1       -0.2263
     27 C         138.1614  143.8577  164.5515 C.3     1  UNL1        0.4349
     28 F         137.2005  144.5066  165.5031 F       1  UNL1       -0.1644
     29 F         138.9861  145.1104  164.5299 F       1  UNL1       -0.1644
     30 F         137.3367  142.6049  164.5731 F       1  UNL1       -0.1644
     31 C         137.8564  138.7113  161.9633 C.3     1  UNL1        0.0101
     32 C         139.2769  138.8472  161.5010 C.3     1  UNL1        0.0857
@<TRIPOS>BOND
     1    31    32    1
     2    32    18    1
     3    18    19    2
     4    18    20   am
     5    20     1    1
     6     1     2    1
     7     2     8    1
     8     8     9    1
     9     9    10    1
    10    10    11    1
    11    11    14    1
    12    14    15    1
    13    15    16    1
    14    15    17    1
    15    11    12    1
    16    12    13    1
    17     2     3    1
    18     3     4    1
    19     4     5    1
    20     5     6    1
    21     6     7    1
    22    20    21    1
    23    21    22   ar
    24    22    23   ar
    25    23    24   ar
    26    24    25   ar
    27    25    27    1
    28    27    28    1
    29    27    29    1
    30    27    30    1
    31    25    26   ar
    32     7     2    1
    33    26    21   ar
    34    13     8    1
@<TRIPOS>MOLECULE
*****
 32 34 0 0 0
SMALL
GASTEIGER

@<TRIPOS>ATOM
      1 C         142.3038  139.3729  164.1675 C.3     1  UNL1        0.1143
      2 C         143.4015  140.3952  164.1614 C.3     1  UNL1        0.0690
      3 C         144.3320  141.4672  164.6461 C.3     1  UNL1        0.0485
      4 C         145.3626  142.0411  163.7195 C.3     1  UNL1        0.1436
      5 O         145.4626  141.5430  162.3082 O.3     1  UNL1       -0.3537
      6 C         144.5321  140.4711  161.8234 C.3     1  UNL1        0.1436
      7 C         143.5015  139.8971  162.7500 C.3     1  UNL1        0.0485
      8 N         142.9203  140.5382  165.5749 N.3     1  UNL1       -0.2710
      9 C         142.4744  141.8771  166.0836 C.3     1  UNL1        0.0896
     10 C         141.9932  142.0200  167.4970 C.3     1  UNL1        0.0897
     11 N         141.9578  140.8242  168.4018 N.3     1  UNL1       -0.2703
     12 C         142.4036  139.4853  167.8932 C.3     1  UNL1        0.0897
     13 C         142.8849  139.3424  166.4797 C.3     1  UNL1        0.0896
     14 C         141.4765  140.9672  169.8154 C.3     1  UNL1        0.0721
     15 C         140.0666  141.4009  170.0874 C.3     1  UNL1        0.0160
     16 C         138.9382  140.4251  169.9305 C.3     1  UNL1        0.0014
     17 C         139.7851  142.8105  170.5162 C.3     1  UNL1        0.0014
     18 C         140.5609  138.6209  162.3937 C.2     1  UNL1        0.2304
     19 O         141.3458  137.3650  162.1550 O.2     1  UNL1       -0.2745
     20 N         141.0400  139.6248  163.3999 N.am    1  UNL1       -0.2425
     21 C         140.2552  140.8807  163.6386 C.ar    1  UNL1        0.1373
     22 C         139.1009  140.8731  164.5965 C.ar    1  UNL1        0.0347
     23 C         138.3161  142.1289  164.8352 C.ar    1  UNL1        0.0044
     24 C         138.6856  143.3923  164.1160 C.ar    1  UNL1        0.0232
     25 C         139.8399  143.3999  163.1581 C.ar    1  UNL1        0.1540
     26 N         140.6247  142.1441  162.9194 N.ar    1  UNL1       -0.2263
     27 C         140.2095  144.6633  162.4388 C.3     1  UNL1        0.4349
     28 F         140.5790  145.9267  161.7196 F       1  UNL1       -0.1644
     29 F         141.6104  144.1557  162.2671 F       1  UNL1       -0.1644
     30 F         138.8084  145.1709  162.6106 F       1  UNL1       -0.1644
     31 C         138.0161  138.2212  162.0556 C.3     1  UNL1        0.0101
     32 C         139.2971  138.8727  161.6260 C.3     1  UNL1        0.0857
@<TRIPOS>BOND
     1    31    32    1
     2    32    18    1
     3    18    19    2
     4    18    20   am
     5    20     1    1
     6     1     2    1
     7     2     8    1
     8     8     9    1
     9     9    10    1
    10    10    11    1
    11    11    14    1
    12    14    15    1
    13    15    16    1
    14    15    17    1
    15    11    12    1
    16    12    13    1
    17     2     3    1
    18     3     4    1
    19     4     5    1
    20     5     6    1
    21     6     7    1
    22    20    21    1
    23    21    22   ar
    24    22    23   ar
    25    23    24   ar
    26    24    25   ar
    27    25    27    1
    28    27    28    1
    29    27    29    1
    30    27    30    1
    31    25    26   ar
    32     7     2    1
    33    26    21   ar
    34    13     8    1
@<TRIPOS>MOLECULE
*****
 32 34 0 0 0
SMALL
GASTEIGER

@<TRIPOS>ATOM
      1 C         140.0954  139.4260  164.2333 C.3     1  UNL1        0.1143
      2 C         139.1059  140.5413  164.0681 C.3     1  UNL1        0.0690
      3 C         138.3008  141.7686  164.3770 C.3     1  UNL1        0.0485
      4 C         137.3085  142.2857  163.3781 C.3     1  UNL1        0.1436
      5 O         137.1212  141.5755  162.0702 O.3     1  UNL1       -0.3537
      6 C         137.9263  140.3482  161.7613 C.3     1  UNL1        0.1436
      7 C         138.9186  139.8310  162.7602 C.3     1  UNL1        0.0485
      8 N         139.6368  140.8642  165.4334 N.3     1  UNL1       -0.2710
      9 C         139.6440  139.8129  166.5032 C.3     1  UNL1        0.0896
     10 C         140.1749  140.1358  167.8684 C.3     1  UNL1        0.0897
     11 N         140.6986  141.5100  168.1638 N.3     1  UNL1       -0.2703
     12 C         140.6914  142.5613  167.0939 C.3     1  UNL1        0.0897
     13 C         140.1605  142.2384  165.7287 C.3     1  UNL1        0.0896
     14 C         141.2296  141.8330  169.5290 C.3     1  UNL1        0.0721
     15 C         142.6166  141.4108  169.9135 C.3     1  UNL1        0.0160
     16 C         142.8497  140.0537  170.5086 C.3     1  UNL1        0.0014
     17 C         143.7706  142.3456  169.7030 C.3     1  UNL1        0.0014
     18 C         141.8460  138.0749  162.8696 C.2     1  UNL1        0.2304
     19 O         141.1272  136.8024  163.2078 O.2     1  UNL1       -0.2745
     20 N         141.3300  139.3867  163.3824 N.am    1  UNL1       -0.2425
     21 C         142.0488  140.6591  163.0443 C.ar    1  UNL1        0.1373
     22 C         141.9307  141.2442  161.6682 C.ar    1  UNL1        0.0347
     23 C         142.6495  142.5167  161.3300 C.ar    1  UNL1        0.0044
     24 C         143.4863  143.2039  162.3681 C.ar    1  UNL1        0.0232
     25 C         143.6042  142.6188  163.7441 C.ar    1  UNL1        0.1540
     26 N         142.8855  141.3464  164.0823 N.ar    1  UNL1       -0.2263
     27 C         144.4411  143.3061  164.7822 C.3     1  UNL1        0.4349
     28 F         145.2778  143.9934  165.8202 F       1  UNL1       -0.1644
     29 F         143.4228  144.4035  164.8763 F       1  UNL1       -0.1644
     30 F         145.4592  142.2087  164.6881 F       1  UNL1       -0.1644
     31 C         142.9763  137.6990  160.5607 C.3     1  UNL1        0.0101
     32 C         143.0806  138.0354  162.0187 C.3     1  UNL1        0.0857
@<TRIPOS>BOND
     1    31    32    1
     2    32    18    1
     3    18    19    2
     4    18    20   am
     5    20     1    1
     6     1     2    1
     7     2     8    1
     8     8     9    1
     9     9    10    1
    10    10    11    1
    11    11    14    1
    12    14    15    1
    13    15    16    1
    14    15    17    1
    15    11    12    1
    16    12    13    1
    17     2     3    1
    18     3     4    1
    19     4     5    1
    20     5     6    1
    21     6     7    1
    22    20    21    1
    23    21    22   ar
    24    22    23   ar
    25    23    24   ar
    26    24    25   ar
    27    25    27    1
    28    27    28    1
    29    27    29    1
    30    27    30    1
    31    25    26   ar
    32     7     2    1
    33    26    21   ar
    34    13     8    1
@<TRIPOS>MOLECULE
*****
 32 34 0 0 0
SMALL
GASTEIGER

@<TRIPOS>ATOM
      1 C         143.1370  140.1531  164.8619 C.3     1  UNL1        0.1143
      2 C         142.1704  139.0765  164.4660 C.3     1  UNL1        0.0690
      3 C         141.0317  138.1039  164.5508 C.3     1  UNL1        0.0485
      4 C         140.7244  137.2058  163.3893 C.3     1  UNL1        0.1436
      5 O         141.5559  137.2804  162.1430 O.3     1  UNL1       -0.3537
      6 C         142.6946  138.2531  162.0583 C.3     1  UNL1        0.1436
      7 C         143.0019  139.1511  163.2198 C.3     1  UNL1        0.0485
      8 N         141.6747  139.3758  165.8498 N.3     1  UNL1       -0.2710
      9 C         142.6444  139.4669  166.9905 C.3     1  UNL1        0.0896
     10 C         142.1486  139.7662  168.3742 C.3     1  UNL1        0.0897
     11 N         140.6831  139.9744  168.6171 N.3     1  UNL1       -0.2703
     12 C         139.7134  139.8833  167.4764 C.3     1  UNL1        0.0897
     13 C         140.2092  139.5840  166.0927 C.3     1  UNL1        0.0896
     14 C         140.1873  140.2737  170.0009 C.3     1  UNL1        0.0721
     15 C         140.5710  141.5583  170.6735 C.3     1  UNL1        0.0160
     16 C         139.6926  142.7669  170.5389 C.3     1  UNL1        0.0014
     17 C         141.8329  141.6346  171.4807 C.3     1  UNL1        0.0014
     18 C         144.1645  142.2881  163.7960 C.2     1  UNL1        0.2304
     19 O         145.5186  141.6429  163.8092 O.2     1  UNL1       -0.2745
     20 N         142.9737  141.5431  164.3223 N.am    1  UNL1       -0.2425
     21 C         141.6195  142.1882  164.3091 C.ar    1  UNL1        0.1373
     22 C         141.1137  142.8951  165.5316 C.ar    1  UNL1        0.0347
     23 C         139.7595  143.5402  165.5183 C.ar    1  UNL1        0.0044
     24 C         138.9113  143.4783  164.2827 C.ar    1  UNL1        0.0232
     25 C         139.4173  142.7714  163.0604 C.ar    1  UNL1        0.1540
     26 N         140.7714  142.1263  163.0735 N.ar    1  UNL1       -0.2263
     27 C         138.5690  142.7096  161.8247 C.3     1  UNL1        0.4349
     28 F         137.7208  142.6477  160.5891 F       1  UNL1       -0.1644
     29 F         139.8061  142.6447  160.9788 F       1  UNL1       -0.1644
     30 F         137.3320  142.7745  162.6706 F       1  UNL1       -0.1644
     31 C         143.9568  144.8468  164.1956 C.3     1  UNL1        0.0101
     32 C         144.0012  143.6781  163.2564 C.3     1  UNL1        0.0857
@<TRIPOS>BOND
     1    31    32    1
     2    32    18    1
     3    18    19    2
     4    18    20   am
     5    20     1    1
     6     1     2    1
     7     2     8    1
     8     8     9    1
     9     9    10    1
    10    10    11    1
    11    11    14    1
    12    14    15    1
    13    15    16    1
    14    15    17    1
    15    11    12    1
    16    12    13    1
    17     2     3    1
    18     3     4    1
    19     4     5    1
    20     5     6    1
    21     6     7    1
    22    20    21    1
    23    21    22   ar
    24    22    23   ar
    25    23    24   ar
    26    24    25   ar
    27    25    27    1
    28    27    28    1
    29    27    29    1
    30    27    30    1
    31    25    26   ar
    32     7     2    1
    33    26    21   ar
    34    13     8    1
@<TRIPOS>MOLECULE
*****
 32 34 0 0 0
SMALL
GASTEIGER

@<TRIPOS>ATOM
      1 C         138.4916  140.3236  163.8299 C.3     1  UNL1        0.1143
      2 C         138.5259  141.8066  164.0526 C.3     1  UNL1        0.0690
      3 C         138.7027  143.1238  164.7480 C.3     1  UNL1        0.0485
      4 C         138.4571  144.4033  164.0047 C.3     1  UNL1        0.1436
      5 O         138.0347  144.3656  162.5659 O.3     1  UNL1       -0.3537
      6 C         137.8578  143.0484  161.8704 C.3     1  UNL1        0.1436
      7 C         138.1034  141.7689  162.6137 C.3     1  UNL1        0.0485
      8 N         138.9365  141.3292  165.4141 N.3     1  UNL1       -0.2710
      9 C         138.3447  140.0715  165.9778 C.3     1  UNL1        0.0896
     10 C         138.7553  139.5942  167.3393 C.3     1  UNL1        0.0897
     11 N         139.7576  140.3746  168.1369 N.3     1  UNL1       -0.2703
     12 C         140.3494  141.6323  167.5731 C.3     1  UNL1        0.0897
     13 C         139.9388  142.1096  166.2117 C.3     1  UNL1        0.0896
     14 C         140.1682  139.8972  169.4984 C.3     1  UNL1        0.0721
     15 C         141.6029  139.9925  169.9255 C.3     1  UNL1        0.0160
     16 C         142.6451  139.1546  169.2457 C.3     1  UNL1        0.0014
     17 C         141.9956  140.9256  171.0323 C.3     1  UNL1        0.0014
     18 C         139.1067  138.7546  161.8526 C.2     1  UNL1        0.2304
     19 O         137.6503  138.4904  161.6092 O.2     1  UNL1       -0.2745
     20 N         139.5273  139.6712  162.9629 N.am    1  UNL1       -0.2425
     21 C         140.9837  139.9354  163.2063 C.ar    1  UNL1        0.1373
     22 C         141.6989  140.9853  162.4087 C.ar    1  UNL1        0.0347
     23 C         143.1553  141.2496  162.6521 C.ar    1  UNL1        0.0044
     24 C         143.8963  140.4638  163.6930 C.ar    1  UNL1        0.0232
     25 C         143.1811  139.4139  164.4905 C.ar    1  UNL1        0.1540
     26 N         141.7247  139.1497  164.2472 N.ar    1  UNL1       -0.2263
     27 C         143.9222  138.6282  165.5314 C.3     1  UNL1        0.4349
     28 F         144.6632  137.8424  166.5723 F       1  UNL1       -0.1644
     29 F         145.2262  139.0877  164.9498 F       1  UNL1       -0.1644
     30 F         142.6181  138.1686  166.1130 F       1  UNL1       -0.1644
     31 C         140.4446  138.6624  159.6274 C.3     1  UNL1        0.0101
     32 C         140.1423  138.1022  160.9856 C.3     1  UNL1        0.0857
@<TRIPOS>BOND
     1    31    32    1
     2    32    18    1
     3    18    19    2
     4    18    20   am
     5    20     1    1
     6     1     2    1
     7     2     8    1
     8     8     9    1
     9     9    10    1
    10    10    11    1
    11    11    14    1
    12    14    15    1
    13    15    16    1
    14    15    17    1
    15    11    12    1
    16    12    13    1
    17     2     3    1
    18     3     4    1
    19     4     5    1
    20     5     6    1
    21     6     7    1
    22    20    21    1
    23    21    22   ar
    24    22    23   ar
    25    23    24   ar
    26    24    25   ar
    27    25    27    1
    28    27    28    1
    29    27    29    1
    30    27    30    1
    31    25    26   ar
    32     7     2    1
    33    26    21   ar
    34    13     8    1
