@<TRIPOS>MOLECULE
*****
 30 34 0 0 0
SMALL
GASTEIGER

@<TRIPOS>ATOM
      1 C         141.5896  143.3699  163.6429 C.ar    1  UNL1        0.1059
      2 C         140.4884  142.9339  162.7225 C.ar    1  UNL1        0.0239
      3 C         140.5620  143.2565  161.2594 C.ar    1  UNL1        0.0377
      4 C         141.7368  144.0151  160.7169 C.ar    1  UNL1        0.1535
      5 N         142.8379  144.4510  161.6373 N.ar    1  UNL1       -0.1329
      6 N         142.7643  144.1285  163.1003 N.ar    1  UNL1       -0.1467
      7 N         141.8103  144.3377  159.2538 N.pl3   1  UNL1       -0.2918
      8 C         142.8092  143.7881  158.2789 C.3     1  UNL1        0.0923
      9 C         142.5142  144.3772  156.9314 C.3     1  UNL1        0.0244
     10 C         141.3330  145.2909  157.0734 C.3     1  UNL1        0.0345
     11 C         140.1507  146.1659  157.3676 C.3     1  UNL1        0.0045
     12 C         139.5160  146.9639  156.2675 C.3     1  UNL1        0.0172
     13 C         140.0637  146.8869  154.8731 C.3     1  UNL1        0.0686
     14 N         141.2460  146.0120  154.5789 N.3     1  UNL1       -0.2974
     15 C         141.8806  145.2140  155.6790 C.3     1  UNL1        0.0702
     16 C         140.8980  145.2665  158.5087 C.3     1  UNL1        0.0935
     17 H         141.9727  146.6175  154.1974 H       1  UNL1        0.1232
     18 O         143.9936  142.2666  165.0585 O.3     1  UNL1       -0.5055
     19 C         142.7180  142.4957  165.8137 C.ar    1  UNL1        0.1351
     20 C         142.6444  142.1731  167.2768 C.ar    1  UNL1        0.0365
     21 C         141.3689  142.4022  168.0321 C.ar    1  UNL1        0.0025
     22 C         140.1668  142.9539  167.3243 C.ar    1  UNL1        0.0000
     23 C         140.2404  143.2764  165.8613 C.ar    1  UNL1        0.0046
     24 C         141.5160  143.0474  165.1060 C.ar    1  UNL1        0.0531
     25 H         144.7444  141.9220  165.5007 H       1  UNL1        0.2922
     26 C         141.2953  142.0796  169.4952 C.2     1  UNL1        0.0250
     27 C         140.3135  142.6498  170.4754 C.2     1  UNL1        0.1194
     28 N         140.6020  142.0528  171.8209 N.2     1  UNL1       -0.1510
     29 N         141.7621  141.1136  171.6722 N.2     1  UNL1       -0.1695
     30 C         142.1906  141.1302  170.2348 C.3     1  UNL1        0.1771
@<TRIPOS>BOND
     1    18    19    1
     2    19    20   ar
     3    20    21   ar
     4    21    26    1
     5    26    27    2
     6    27    28    1
     7    28    29    2
     8    29    30    1
     9    21    22   ar
    10    22    23   ar
    11    23    24   ar
    12    24     1    1
    13     1     2   ar
    14     2     3   ar
    15     3     4   ar
    16     4     7    1
    17     7     8    1
    18     8     9    1
    19     9    10    1
    20    10    11    1
    21    11    12    1
    22    12    13    1
    23    13    14    1
    24    14    15    1
    25    10    16    1
    26     4     5   ar
    27     5     6   ar
    28    24    19   ar
    29     6     1   ar
    30    30    26    1
    31    16     7    1
    32    15    10    1
    33    18    25    1
    34    14    17    1
@<TRIPOS>MOLECULE
*****
 30 34 0 0 0
SMALL
GASTEIGER

@<TRIPOS>ATOM
      1 C         141.3955  143.5381  163.5376 C.ar    1  UNL1        0.1059
      2 C         142.1294  142.6325  162.5934 C.ar    1  UNL1        0.0239
      3 C         142.2035  142.9717  161.1342 C.ar    1  UNL1        0.0377
      4 C         141.5438  144.2164  160.6191 C.ar    1  UNL1        0.1535
      5 N         140.8100  145.1220  161.5631 N.ar    1  UNL1       -0.1329
      6 N         140.7358  144.7828  163.0224 N.ar    1  UNL1       -0.1467
      7 N         141.6180  144.5556  159.1598 N.pl3   1  UNL1       -0.2918
      8 C         142.6303  144.0337  158.1836 C.3     1  UNL1        0.0923
      9 C         142.3308  144.6318  156.8410 C.3     1  UNL1        0.0244
     10 C         141.1333  145.5233  156.9873 C.3     1  UNL1        0.0345
     11 C         139.9346  146.3743  157.2854 C.3     1  UNL1        0.0045
     12 C         139.2908  147.1727  156.1908 C.3     1  UNL1        0.0172
     13 C         139.8456  147.1199  154.7982 C.3     1  UNL1        0.0686
     14 N         141.0442  146.2688  154.5001 N.3     1  UNL1       -0.2974
     15 C         141.6881  145.4705  155.5947 C.3     1  UNL1        0.0702
     16 C         140.6927  145.4762  158.4204 C.3     1  UNL1        0.0935
     17 H         141.7619  146.8909  154.1282 H       1  UNL1        0.1232
     18 O         138.8618  144.0332  165.0658 O.3     1  UNL1       -0.5055
     19 C         140.0545  143.4465  165.7609 C.ar    1  UNL1        0.1351
     20 C         139.9803  143.1074  167.2202 C.ar    1  UNL1        0.0365
     21 C         141.1730  142.5207  167.9154 C.ar    1  UNL1        0.0025
     22 C         142.4399  142.2731  167.1513 C.ar    1  UNL1        0.0000
     23 C         142.5141  142.6123  165.6920 C.ar    1  UNL1        0.0046
     24 C         141.3214  143.1990  164.9968 C.ar    1  UNL1        0.0531
     25 H         138.0704  144.1878  165.5431 H       1  UNL1        0.2922
     26 C         141.0989  142.1815  169.3747 C.2     1  UNL1        0.0250
     27 C         140.2020  142.8312  170.3863 C.2     1  UNL1        0.1194
     28 N         140.4574  142.1843  171.7154 N.2     1  UNL1       -0.1510
     29 N         141.5121  141.1349  171.5251 N.2     1  UNL1       -0.1695
     30 C         141.9086  141.1332  170.0784 C.3     1  UNL1        0.1771
@<TRIPOS>BOND
     1    18    19    1
     2    19    20   ar
     3    20    21   ar
     4    21    26    1
     5    26    27    2
     6    27    28    1
     7    28    29    2
     8    29    30    1
     9    21    22   ar
    10    22    23   ar
    11    23    24   ar
    12    24     1    1
    13     1     2   ar
    14     2     3   ar
    15     3     4   ar
    16     4     7    1
    17     7     8    1
    18     8     9    1
    19     9    10    1
    20    10    11    1
    21    11    12    1
    22    12    13    1
    23    13    14    1
    24    14    15    1
    25    10    16    1
    26     4     5   ar
    27     5     6   ar
    28    24    19   ar
    29     6     1   ar
    30    30    26    1
    31    16     7    1
    32    15    10    1
    33    18    25    1
    34    14    17    1
@<TRIPOS>MOLECULE
*****
 30 34 0 0 0
SMALL
GASTEIGER

@<TRIPOS>ATOM
      1 C         142.5862  142.4321  163.5737 C.ar    1  UNL1        0.1059
      2 C         143.8215  143.1289  163.0854 C.ar    1  UNL1        0.0239
      3 C         144.1414  143.1495  161.6200 C.ar    1  UNL1        0.0377
      4 C         143.2259  142.4732  160.6430 C.ar    1  UNL1        0.1535
      5 N         141.9907  141.7764  161.1314 N.ar    1  UNL1       -0.1329
      6 N         141.6709  141.7558  162.5967 N.ar    1  UNL1       -0.1467
      7 N         143.5457  142.4937  159.1777 N.pl3   1  UNL1       -0.2918
      8 C         142.5481  142.5147  158.0577 C.3     1  UNL1        0.0923
      9 C         143.3051  142.5308  156.7628 C.3     1  UNL1        0.0244
     10 C         144.7707  142.5199  157.0825 C.3     1  UNL1        0.0345
     11 C         146.1947  142.5069  157.5536 C.3     1  UNL1        0.0045
     12 C         147.3148  142.5172  156.5561 C.3     1  UNL1        0.0172
     13 C         147.0109  142.5404  155.0873 C.3     1  UNL1        0.0686
     14 N         145.5869  142.5534  154.6162 N.3     1  UNL1       -0.2974
     15 C         144.4668  142.5431  155.6138 C.3     1  UNL1        0.0702
     16 C         144.9194  142.4970  158.5750 C.3     1  UNL1        0.0935
     17 H         145.4641  141.7297  154.0272 H       1  UNL1        0.1232
     18 O         139.7736  142.9092  164.5020 O.3     1  UNL1       -0.5055
     19 C         140.8601  142.6501  165.5032 C.ar    1  UNL1        0.1351
     20 C         140.5402  142.6295  166.9686 C.ar    1  UNL1        0.0365
     21 C         141.6267  142.3704  167.9698 C.ar    1  UNL1        0.0025
     22 C         143.0331  142.1319  167.5057 C.ar    1  UNL1        0.0000
     23 C         143.3529  142.1525  166.0403 C.ar    1  UNL1        0.0046
     24 C         142.2664  142.4115  165.0391 C.ar    1  UNL1        0.0531
     25 H         138.8951  143.0582  164.7920 H       1  UNL1        0.2922
     26 C         141.3069  142.3499  169.4352 C.2     1  UNL1        0.0250
     27 C         142.2642  142.0204  170.5420 C.2     1  UNL1        0.1194
     28 N         141.5225  142.1221  171.8418 N.2     1  UNL1       -0.1510
     29 N         140.1069  142.5144  171.5384 N.2     1  UNL1       -0.1695
     30 C         139.9737  142.6552  170.0509 C.3     1  UNL1        0.1771
@<TRIPOS>BOND
     1    18    19    1
     2    19    20   ar
     3    20    21   ar
     4    21    26    1
     5    26    27    2
     6    27    28    1
     7    28    29    2
     8    29    30    1
     9    21    22   ar
    10    22    23   ar
    11    23    24   ar
    12    24     1    1
    13     1     2   ar
    14     2     3   ar
    15     3     4   ar
    16     4     7    1
    17     7     8    1
    18     8     9    1
    19     9    10    1
    20    10    11    1
    21    11    12    1
    22    12    13    1
    23    13    14    1
    24    14    15    1
    25    10    16    1
    26     4     5   ar
    27     5     6   ar
    28    24    19   ar
    29     6     1   ar
    30    30    26    1
    31    16     7    1
    32    15    10    1
    33    18    25    1
    34    14    17    1
@<TRIPOS>MOLECULE
*****
 30 34 0 0 0
SMALL
GASTEIGER

@<TRIPOS>ATOM
      1 C         139.4244  140.9653  163.6645 C.ar    1  UNL1        0.1059
      2 C         138.0670  140.6479  163.1106 C.ar    1  UNL1        0.0239
      3 C         137.8670  140.5469  161.6274 C.ar    1  UNL1        0.0377
      4 C         139.0244  140.7633  160.6982 C.ar    1  UNL1        0.1535
      5 N         140.3817  141.0807  161.2521 N.ar    1  UNL1       -0.1329
      6 N         140.5817  141.1817  162.7352 N.ar    1  UNL1       -0.1467
      7 N         138.8245  140.6623  159.2150 N.pl3   1  UNL1       -0.2918
      8 C         139.2620  139.5237  158.3418 C.3     1  UNL1        0.0923
      9 C         138.8598  139.8399  156.9318 C.3     1  UNL1        0.0244
     10 C         138.1737  141.1739  156.9334 C.3     1  UNL1        0.0345
     11 C         137.5123  142.5110  157.0901 C.3     1  UNL1        0.0045
     12 C         136.9473  143.2133  155.8912 C.3     1  UNL1        0.0172
     13 C         137.0437  142.5785  154.5356 C.3     1  UNL1        0.0686
     14 N         137.7050  141.2414  154.3789 N.3     1  UNL1       -0.2974
     15 C         138.2701  140.5391  155.5778 C.3     1  UNL1        0.0702
     16 C         138.1519  141.6821  158.3445 C.3     1  UNL1        0.0935
     17 H         138.4751  141.3689  153.7223 H       1  UNL1        0.1232
     18 O         140.6837  143.4192  164.8446 O.3     1  UNL1       -0.5055
     19 C         140.2540  142.2932  165.7377 C.ar    1  UNL1        0.1351
     20 C         140.4539  142.3943  167.2209 C.ar    1  UNL1        0.0365
     21 C         140.0243  141.2683  168.1141 C.ar    1  UNL1        0.0025
     22 C         139.3946  140.0414  167.5239 C.ar    1  UNL1        0.0000
     23 C         139.1946  139.9404  166.0408 C.ar    1  UNL1        0.0046
     24 C         139.6243  141.0663  165.1477 C.ar    1  UNL1        0.0531
     25 H         141.0770  144.1856  165.2133 H       1  UNL1        0.2922
     26 C         140.2242  141.3693  169.5972 C.2     1  UNL1        0.0250
     27 C         140.1065  142.6182  170.4197 C.2     1  UNL1        0.1194
     28 N         140.3865  142.2599  171.8491 N.2     1  UNL1       -0.1510
     29 N         140.6774  140.7896  171.9100 N.2     1  UNL1       -0.1695
     30 C         140.5770  140.2392  170.5182 C.3     1  UNL1        0.1771
@<TRIPOS>BOND
     1    18    19    1
     2    19    20   ar
     3    20    21   ar
     4    21    26    1
     5    26    27    2
     6    27    28    1
     7    28    29    2
     8    29    30    1
     9    21    22   ar
    10    22    23   ar
    11    23    24   ar
    12    24     1    1
    13     1     2   ar
    14     2     3   ar
    15     3     4   ar
    16     4     7    1
    17     7     8    1
    18     8     9    1
    19     9    10    1
    20    10    11    1
    21    11    12    1
    22    12    13    1
    23    13    14    1
    24    14    15    1
    25    10    16    1
    26     4     5   ar
    27     5     6   ar
    28    24    19   ar
    29     6     1   ar
    30    30    26    1
    31    16     7    1
    32    15    10    1
    33    18    25    1
    34    14    17    1
@<TRIPOS>MOLECULE
*****
 30 34 0 0 0
SMALL
GASTEIGER

@<TRIPOS>ATOM
      1 C         139.3651  141.6699  163.6376 C.ar    1  UNL1        0.1059
      2 C         140.4635  141.9037  162.6433 C.ar    1  UNL1        0.0239
      3 C         140.1555  141.9199  161.1754 C.ar    1  UNL1        0.0377
      4 C         138.7490  141.7021  160.7018 C.ar    1  UNL1        0.1535
      5 N         137.6506  141.4683  161.6960 N.ar    1  UNL1       -0.1329
      6 N         137.9586  141.4522  163.1640 N.ar    1  UNL1       -0.1467
      7 N         138.4410  141.7183  159.2338 N.pl3   1  UNL1       -0.2918
      8 C         137.7249  140.6431  158.4713 C.3     1  UNL1        0.0923
      9 C         137.6363  141.0728  157.0369 C.3     1  UNL1        0.0244
     10 C         138.2976  142.4135  156.9128 C.3     1  UNL1        0.0345
     11 C         138.9875  143.7451  156.9429 C.3     1  UNL1        0.0045
     12 C         139.1269  144.5461  155.6824 C.3     1  UNL1        0.0172
     13 C         138.5766  144.0156  154.3919 C.3     1  UNL1        0.0686
     14 N         137.8867  142.6840  154.3618 N.3     1  UNL1       -0.2974
     15 C         137.7472  141.8829  155.6222 C.3     1  UNL1        0.0702
     16 C         138.7949  142.8124  158.2706 C.3     1  UNL1        0.0935
     17 H         138.3983  142.1022  153.6983 H       1  UNL1        0.1232
     18 O         138.6038  139.2942  165.3040 O.3     1  UNL1       -0.5055
     19 C         139.2925  140.4659  165.9387 C.ar    1  UNL1        0.1351
     20 C         139.6005  140.4497  167.4067 C.ar    1  UNL1        0.0365
     21 C         140.2891  141.6214  168.0415 C.ar    1  UNL1        0.0025
     22 C         140.6698  142.8093  167.2082 C.ar    1  UNL1        0.0000
     23 C         140.3617  142.8254  165.7403 C.ar    1  UNL1        0.0046
     24 C         139.6731  141.6537  165.1055 C.ar    1  UNL1        0.0531
     25 H         138.3661  138.5522  165.8245 H       1  UNL1        0.2922
     26 C         140.5972  141.6053  169.5094 C.2     1  UNL1        0.0250
     27 C         141.5806  140.7031  170.1940 C.2     1  UNL1        0.1194
     28 N         141.5671  141.0287  171.6582 N.2     1  UNL1       -0.1510
     29 N         140.5752  142.1322  171.8784 N.2     1  UNL1       -0.1695
     30 C         139.9758  142.4886  170.5504 C.3     1  UNL1        0.1771
@<TRIPOS>BOND
     1    18    19    1
     2    19    20   ar
     3    20    21   ar
     4    21    26    1
     5    26    27    2
     6    27    28    1
     7    28    29    2
     8    29    30    1
     9    21    22   ar
    10    22    23   ar
    11    23    24   ar
    12    24     1    1
    13     1     2   ar
    14     2     3   ar
    15     3     4   ar
    16     4     7    1
    17     7     8    1
    18     8     9    1
    19     9    10    1
    20    10    11    1
    21    11    12    1
    22    12    13    1
    23    13    14    1
    24    14    15    1
    25    10    16    1
    26     4     5   ar
    27     5     6   ar
    28    24    19   ar
    29     6     1   ar
    30    30    26    1
    31    16     7    1
    32    15    10    1
    33    18    25    1
    34    14    17    1
@<TRIPOS>MOLECULE
*****
 30 34 0 0 0
SMALL
GASTEIGER

@<TRIPOS>ATOM
      1 C         139.5864  140.5909  163.6328 C.ar    1  UNL1        0.1059
      2 C         140.0154  139.3092  162.9820 C.ar    1  UNL1        0.0239
      3 C         139.8583  139.1309  161.5010 C.ar    1  UNL1        0.0377
      4 C         139.2722  140.2341  160.6707 C.ar    1  UNL1        0.1535
      5 N         138.8433  141.5156  161.3214 N.ar    1  UNL1       -0.1329
      6 N         139.0004  141.6940  162.8025 N.ar    1  UNL1       -0.1467
      7 N         139.1151  140.0557  159.1897 N.pl3   1  UNL1       -0.2918
      8 C         138.4264  141.0059  158.2553 C.3     1  UNL1        0.0923
      9 C         138.5048  140.4332  156.8711 C.3     1  UNL1        0.0244
     10 C         139.2419  139.1292  156.9499 C.3     1  UNL1        0.0345
     11 C         139.9914  137.8510  157.1832 C.3     1  UNL1        0.0045
     12 C         140.2976  136.9402  156.0314 C.3     1  UNL1        0.0172
     13 C         139.8543  137.3077  154.6463 C.3     1  UNL1        0.0686
     14 N         139.1048  138.5858  154.4130 N.3     1  UNL1       -0.2974
     15 C         138.7986  139.4966  155.5649 C.3     1  UNL1        0.0702
     16 C         139.6191  138.8959  158.3829 C.3     1  UNL1        0.0935
     17 H         138.2107  138.3306  153.9938 H       1  UNL1        0.1232
     18 O         140.7894  143.1148  164.7204 O.3     1  UNL1       -0.5055
     19 C         140.3450  142.0312  165.6576 C.ar    1  UNL1        0.1351
     20 C         140.5021  142.2096  167.1387 C.ar    1  UNL1        0.0365
     21 C         140.0577  141.1261  168.0759 C.ar    1  UNL1        0.0025
     22 C         139.4562  139.8641  167.5321 C.ar    1  UNL1        0.0000
     23 C         139.2991  139.6857  166.0511 C.ar    1  UNL1        0.0046
     24 C         139.7435  140.7693  165.1138 C.ar    1  UNL1        0.0531
     25 H         141.1652  143.9031  165.0601 H       1  UNL1        0.2922
     26 C         140.2148  141.3044  169.5570 C.2     1  UNL1        0.0250
     27 C         140.0845  142.5962  170.3081 C.2     1  UNL1        0.1194
     28 N         140.3189  142.3125  171.7623 N.2     1  UNL1       -0.1510
     29 N         140.5941  140.8454  171.9098 N.2     1  UNL1       -0.1695
     30 C         140.5298  140.2223  170.5468 C.3     1  UNL1        0.1771
@<TRIPOS>BOND
     1    18    19    1
     2    19    20   ar
     3    20    21   ar
     4    21    26    1
     5    26    27    2
     6    27    28    1
     7    28    29    2
     8    29    30    1
     9    21    22   ar
    10    22    23   ar
    11    23    24   ar
    12    24     1    1
    13     1     2   ar
    14     2     3   ar
    15     3     4   ar
    16     4     7    1
    17     7     8    1
    18     8     9    1
    19     9    10    1
    20    10    11    1
    21    11    12    1
    22    12    13    1
    23    13    14    1
    24    14    15    1
    25    10    16    1
    26     4     5   ar
    27     5     6   ar
    28    24    19   ar
    29     6     1   ar
    30    30    26    1
    31    16     7    1
    32    15    10    1
    33    18    25    1
    34    14    17    1
@<TRIPOS>MOLECULE
*****
 30 34 0 0 0
SMALL
GASTEIGER

@<TRIPOS>ATOM
      1 C         140.4225  143.4508  161.9578 C.ar    1  UNL1        0.1059
      2 C         139.5604  142.8722  160.8751 C.ar    1  UNL1        0.0239
      3 C         139.6549  143.4049  159.4761 C.ar    1  UNL1        0.0377
      4 C         140.6115  144.5161  159.1597 C.ar    1  UNL1        0.1535
      5 N         141.4735  145.0946  160.2423 N.ar    1  UNL1       -0.1329
      6 N         141.3791  144.5620  161.6413 N.ar    1  UNL1       -0.1467
      7 N         140.7060  145.0488  157.7607 N.pl3   1  UNL1       -0.2918
      8 C         141.5275  144.4662  156.6490 C.3     1  UNL1        0.0923
      9 C         141.3248  145.3149  155.4289 C.3     1  UNL1        0.0244
     10 C         140.3779  146.4221  155.7865 C.3     1  UNL1        0.0345
     11 C         139.4265  147.4675  156.2884 C.3     1  UNL1        0.0045
     12 C         138.9464  148.5491  155.3667 C.3     1  UNL1        0.0172
     13 C         139.4178  148.5854  153.9432 C.3     1  UNL1        0.0686
     14 N         140.3693  147.5401  153.4413 N.3     1  UNL1       -0.2974
     15 C         140.8493  146.4584  154.3630 C.3     1  UNL1        0.0702
     16 C         139.9955  146.2576  157.2276 C.3     1  UNL1        0.0935
     17 H         141.1982  148.0321  153.1078 H       1  UNL1        0.1232
     18 O         140.0309  145.3369  164.2577 O.3     1  UNL1       -0.5055
     19 C         140.1323  143.8612  164.5067 C.ar    1  UNL1        0.1351
     20 C         140.0378  143.3285  165.9058 C.ar    1  UNL1        0.0365
     21 C         140.1391  141.8528  166.1550 C.ar    1  UNL1        0.0025
     22 C         140.3349  140.9098  165.0050 C.ar    1  UNL1        0.0000
     23 C         140.4294  141.4424  163.6059 C.ar    1  UNL1        0.0046
     24 C         140.3281  142.9181  163.3568 C.ar    1  UNL1        0.0531
     25 H         139.9086  145.9259  164.9761 H       1  UNL1        0.2922
     26 C         140.0446  141.3202  167.5540 C.2     1  UNL1        0.0250
     27 C         140.2551  142.1075  168.8132 C.2     1  UNL1        0.1194
     28 N         140.0637  141.1806  169.9769 N.2     1  UNL1       -0.1510
     29 N         139.7348  139.8204  169.4368 N.2     1  UNL1       -0.1695
     30 C         139.7231  139.9067  167.9393 C.3     1  UNL1        0.1771
@<TRIPOS>BOND
     1    18    19    1
     2    19    20   ar
     3    20    21   ar
     4    21    26    1
     5    26    27    2
     6    27    28    1
     7    28    29    2
     8    29    30    1
     9    21    22   ar
    10    22    23   ar
    11    23    24   ar
    12    24     1    1
    13     1     2   ar
    14     2     3   ar
    15     3     4   ar
    16     4     7    1
    17     7     8    1
    18     8     9    1
    19     9    10    1
    20    10    11    1
    21    11    12    1
    22    12    13    1
    23    13    14    1
    24    14    15    1
    25    10    16    1
    26     4     5   ar
    27     5     6   ar
    28    24    19   ar
    29     6     1   ar
    30    30    26    1
    31    16     7    1
    32    15    10    1
    33    18    25    1
    34    14    17    1
@<TRIPOS>MOLECULE
*****
 30 34 0 0 0
SMALL
GASTEIGER

@<TRIPOS>ATOM
      1 C         141.9783  140.2378  163.5868 C.ar    1  UNL1        0.1059
      2 C         143.3969  140.0948  163.1208 C.ar    1  UNL1        0.0239
      3 C         143.6867  139.8023  161.6784 C.ar    1  UNL1        0.0377
      4 C         142.5579  139.6528  160.7020 C.ar    1  UNL1        0.1535
      5 N         141.1394  139.7958  161.1680 N.ar    1  UNL1       -0.1329
      6 N         140.8496  140.0883  162.6103 N.ar    1  UNL1       -0.1467
      7 N         142.8477  139.3602  159.2597 N.pl3   1  UNL1       -0.2918
      8 C         143.3188  140.3508  158.2365 C.3     1  UNL1        0.0923
      9 C         143.4795  139.6286  156.9317 C.3     1  UNL1        0.0244
     10 C         143.1077  138.1915  157.1484 C.3     1  UNL1        0.0345
     11 C         142.7077  136.7931  157.5147 C.3     1  UNL1        0.0045
     12 C         142.7237  135.7118  156.4752 C.3     1  UNL1        0.0172
     13 C         143.1396  136.0290  155.0694 C.3     1  UNL1        0.0686
     14 N         143.5396  137.4275  154.7031 N.3     1  UNL1       -0.2974
     15 C         143.5237  138.5087  155.7426 C.3     1  UNL1        0.0702
     16 C         142.7172  138.0257  158.5872 C.3     1  UNL1        0.0935
     17 H         142.9122  137.7273  153.9568 H       1  UNL1        0.1232
     18 O         140.4789  142.7244  164.3411 O.3     1  UNL1       -0.5055
     19 C         140.9389  141.7736  165.4063 C.ar    1  UNL1        0.1351
     20 C         140.6490  142.0662  166.8487 C.ar    1  UNL1        0.0365
     21 C         141.1089  141.1155  167.9139 C.ar    1  UNL1        0.0025
     22 C         141.8586  139.8722  167.5367 C.ar    1  UNL1        0.0000
     23 C         142.1484  139.5796  166.0943 C.ar    1  UNL1        0.0046
     24 C         141.6885  140.5304  165.0291 C.ar    1  UNL1        0.0531
     25 H         140.0106  143.5010  164.5768 H       1  UNL1        0.2922
     26 C         140.8191  141.4080  169.3563 C.2     1  UNL1        0.0250
     27 C         141.0861  140.4909  170.5128 C.2     1  UNL1        0.1194
     28 N         140.6435  141.1851  171.7666 N.2     1  UNL1       -0.1510
     29 N         140.1030  142.5313  171.3850 N.2     1  UNL1       -0.1695
     30 C         140.2115  142.6691  169.8953 C.3     1  UNL1        0.1771
@<TRIPOS>BOND
     1    18    19    1
     2    19    20   ar
     3    20    21   ar
     4    21    26    1
     5    26    27    2
     6    27    28    1
     7    28    29    2
     8    29    30    1
     9    21    22   ar
    10    22    23   ar
    11    23    24   ar
    12    24     1    1
    13     1     2   ar
    14     2     3   ar
    15     3     4   ar
    16     4     7    1
    17     7     8    1
    18     8     9    1
    19     9    10    1
    20    10    11    1
    21    11    12    1
    22    12    13    1
    23    13    14    1
    24    14    15    1
    25    10    16    1
    26     4     5   ar
    27     5     6   ar
    28    24    19   ar
    29     6     1   ar
    30    30    26    1
    31    16     7    1
    32    15    10    1
    33    18    25    1
    34    14    17    1
@<TRIPOS>MOLECULE
*****
 30 34 0 0 0
SMALL
GASTEIGER

@<TRIPOS>ATOM
      1 C         141.5851  143.7492  162.1942 C.ar    1  UNL1        0.1059
      2 C         142.8065  144.1011  162.9908 C.ar    1  UNL1        0.0239
      3 C         142.9434  143.6212  164.4053 C.ar    1  UNL1        0.0377
      4 C         141.8589  142.7894  165.0233 C.ar    1  UNL1        0.1535
      5 N         140.6376  142.4375  164.2268 N.ar    1  UNL1       -0.1329
      6 N         140.5007  142.9174  162.8123 N.ar    1  UNL1       -0.1467
      7 N         141.9958  142.3094  166.4378 N.pl3   1  UNL1       -0.2918
      8 C         143.2418  142.3653  167.2712 C.3     1  UNL1        0.0923
      9 C         142.9268  141.7798  168.6158 C.3     1  UNL1        0.0244
     10 C         141.4861  141.3620  168.6135 C.3     1  UNL1        0.0345
     11 C         140.0390  140.9968  168.4634 C.3     1  UNL1        0.0045
     12 C         139.3030  140.3630  169.6064 C.3     1  UNL1        0.0172
     13 C         140.0140  140.0944  170.8996 C.3     1  UNL1        0.0686
     14 N         141.4611  140.4597  171.0497 N.3     1  UNL1       -0.2974
     15 C         142.1971  141.0935  169.9067 C.3     1  UNL1        0.0702
     16 C         140.9107  141.6894  167.2675 C.3     1  UNL1        0.0935
     17 H         141.9594  139.6001  171.2803 H       1  UNL1        0.1232
     18 O         139.4328  145.7126  161.4781 O.3     1  UNL1       -0.5055
     19 C         140.3721  145.2108  160.4217 C.ar    1  UNL1        0.1351
     20 C         140.2351  145.6908  159.0071 C.ar    1  UNL1        0.0365
     21 C         141.1743  145.1890  157.9506 C.ar    1  UNL1        0.0025
     22 C         142.2505  144.2073  158.3087 C.ar    1  UNL1        0.0000
     23 C         142.3874  143.7274  159.7233 C.ar    1  UNL1        0.0046
     24 C         141.4482  144.2291  160.7797 C.ar    1  UNL1        0.0531
     25 H         138.7606  146.3259  161.2543 H       1  UNL1        0.2922
     26 C         141.0374  145.6689  156.5361 C.2     1  UNL1        0.0250
     27 C         139.9465  146.5515  156.0062 C.2     1  UNL1        0.1194
     28 N         140.2023  146.7786  154.5457 N.2     1  UNL1       -0.1510
     29 N         141.4513  146.0363  154.1730 N.2     1  UNL1       -0.1695
     30 C         141.9675  145.3505  155.4032 C.3     1  UNL1        0.1771
@<TRIPOS>BOND
     1    18    19    1
     2    19    20   ar
     3    20    21   ar
     4    21    26    1
     5    26    27    2
     6    27    28    1
     7    28    29    2
     8    29    30    1
     9    21    22   ar
    10    22    23   ar
    11    23    24   ar
    12    24     1    1
    13     1     2   ar
    14     2     3   ar
    15     3     4   ar
    16     4     7    1
    17     7     8    1
    18     8     9    1
    19     9    10    1
    20    10    11    1
    21    11    12    1
    22    12    13    1
    23    13    14    1
    24    14    15    1
    25    10    16    1
    26     4     5   ar
    27     5     6   ar
    28    24    19   ar
    29     6     1   ar
    30    30    26    1
    31    16     7    1
    32    15    10    1
    33    18    25    1
    34    14    17    1
