@<TRIPOS>MOLECULE
*****
 35 38 0 0 0
SMALL
GASTEIGER

@<TRIPOS>ATOM
      1 C         141.2199  140.9698  166.6203 C.3     1  UNL1        0.1078
      2 C         140.2835  139.8484  166.2802 C.ar    1  UNL1       -0.0108
      3 C         140.6953  138.8027  165.2868 C.ar    1  UNL1       -0.0035
      4 C         139.7589  137.6813  164.9467 C.ar    1  UNL1       -0.0003
      5 C         138.4107  137.6056  165.6001 C.ar    1  UNL1       -0.0000
      6 C         137.9990  138.6513  166.5935 C.ar    1  UNL1       -0.0003
      7 C         138.9354  139.7728  166.9336 C.ar    1  UNL1       -0.0035
      8 C         140.4075  141.9047  165.7741 C.ar    1  UNL1       -0.0108
      9 C         139.9246  143.2051  166.3449 C.ar    1  UNL1       -0.0035
     10 C         139.1122  144.1400  165.4987 C.ar    1  UNL1       -0.0003
     11 C         138.7829  143.7745  164.0817 C.ar    1  UNL1       -0.0000
     12 C         139.2658  142.4742  163.5109 C.ar    1  UNL1       -0.0003
     13 C         140.0782  141.5392  164.3571 C.ar    1  UNL1       -0.0035
     14 C         140.8073  140.6096  169.8739 C.3     1  UNL1        0.1149
     15 N         141.7714  139.9392  168.9406 N.am    1  UNL1       -0.2755
     16 C         142.5837  139.0044  169.7868 C.3     1  UNL1        0.1149
     17 C         142.0322  140.0349  167.4665 C.2     1  UNL1        0.2325
     18 O         143.1053  139.1957  166.8387 O.2     1  UNL1       -0.2742
     19 C         142.1563  142.0912  166.9604 C.3     1  UNL1        0.0341
     20 C         143.3711  142.3363  166.1154 C.3     1  UNL1        0.0732
     21 N         143.2167  142.7611  164.6851 N.3     1  UNL1       -0.2725
     22 C         142.8349  144.1747  164.3597 C.3     1  UNL1        0.0748
     23 C         142.6804  144.5995  162.9294 C.3     1  UNL1        0.0485
     24 C         142.9078  143.6107  161.8246 C.3     1  UNL1        0.1096
     25 O         142.5634  144.8277  161.0182 O.3     1  UNL1       -0.3826
     26 C         143.2896  142.1971  162.1501 C.3     1  UNL1        0.0485
     27 C         143.4440  141.7723  163.5803 C.3     1  UNL1        0.0748
     28 H         142.3854  145.5713  161.6151 H       1  UNL1        0.2107
     29 C         143.0155  143.0446  160.4397 C.ar    1  UNL1        0.0019
     30 C         144.3467  142.5948  159.9147 C.ar    1  UNL1       -0.0012
     31 C         144.4543  142.0287  158.5297 C.ar    1  UNL1        0.0111
     32 C         143.2307  141.9124  157.6699 C.ar    1  UNL1        0.0577
     33 CL        143.3384  141.3463  156.2849 Cl      1  UNL1       -0.0822
     34 C         141.8996  142.3622  158.1949 C.ar    1  UNL1        0.0111
     35 C         141.7919  142.9283  159.5798 C.ar    1  UNL1       -0.0012
@<TRIPOS>BOND
     1    14    15    1
     2    15    16    1
     3    15    17   am
     4    17    18    2
     5    17     1    1
     6     1    19    1
     7    19    20    1
     8    20    21    1
     9    21    22    1
    10    22    23    1
    11    23    24    1
    12    24    25    1
    13    24    29    1
    14    29    30   ar
    15    30    31   ar
    16    31    32   ar
    17    32    33    1
    18    32    34   ar
    19    34    35   ar
    20    24    26    1
    21    26    27    1
    22     1     2    1
    23     2     3   ar
    24     3     4   ar
    25     4     5   ar
    26     5     6   ar
    27     6     7   ar
    28     1     8    1
    29     8     9   ar
    30     9    10   ar
    31    10    11   ar
    32    11    12   ar
    33    12    13   ar
    34    27    21    1
    35     7     2   ar
    36    13     8   ar
    37    35    29   ar
    38    25    28    1
@<TRIPOS>MOLECULE
*****
 35 38 0 0 0
SMALL
GASTEIGER

@<TRIPOS>ATOM
      1 C         141.5769  141.0624  166.7934 C.3     1  UNL1        0.1078
      2 C         142.6896  140.2178  166.2472 C.ar    1  UNL1       -0.0108
      3 C         142.9948  138.8867  166.8677 C.ar    1  UNL1       -0.0035
      4 C         144.1075  138.0420  166.3215 C.ar    1  UNL1       -0.0003
      5 C         144.9152  138.5285  165.1548 C.ar    1  UNL1       -0.0000
      6 C         144.6101  139.8597  164.5344 C.ar    1  UNL1       -0.0003
      7 C         143.4973  140.7043  165.0806 C.ar    1  UNL1       -0.0035
      8 C         140.5805  140.2481  166.0227 C.ar    1  UNL1       -0.0108
      9 C         139.4326  139.5965  166.7355 C.ar    1  UNL1       -0.0035
     10 C         138.4363  138.7822  165.9648 C.ar    1  UNL1       -0.0003
     11 C         138.5876  138.6193  164.4814 C.ar    1  UNL1       -0.0000
     12 C         139.7354  139.2709  163.7686 C.ar    1  UNL1       -0.0003
     13 C         140.7319  140.0853  164.5393 C.ar    1  UNL1       -0.0035
     14 C         142.1836  140.6577  170.0111 C.3     1  UNL1        0.1149
     15 N         142.7809  141.6196  169.0273 N.am    1  UNL1       -0.2755
     16 C         143.7773  142.4339  169.7979 C.3     1  UNL1        0.1149
     17 C         142.5733  141.8768  167.5641 C.2     1  UNL1        0.2325
     18 O         143.3622  142.9483  166.8716 O.2     1  UNL1       -0.2742
     19 C         140.4641  141.9071  167.3396 C.3     1  UNL1        0.0341
     20 C         140.1547  143.2353  166.7150 C.3     1  UNL1        0.0732
     21 N         139.7123  143.3061  165.2834 N.3     1  UNL1       -0.2725
     22 C         138.2941  142.9803  164.9198 C.3     1  UNL1        0.0748
     23 C         137.8517  143.0511  163.4883 C.3     1  UNL1        0.0485
     24 C         138.8276  143.4477  162.4204 C.3     1  UNL1        0.1096
     25 O         137.6002  143.2338  161.5851 O.3     1  UNL1       -0.3826
     26 C         140.2459  143.7735  162.7841 C.3     1  UNL1        0.0485
     27 C         140.6883  143.7027  164.2156 C.3     1  UNL1        0.0748
     28 H         136.8634  142.9652  162.1560 H       1  UNL1        0.2107
     29 C         139.3772  143.7700  161.0625 C.ar    1  UNL1        0.0019
     30 C         139.1488  142.8278  159.9179 C.ar    1  UNL1       -0.0012
     31 C         139.6984  143.1502  158.5599 C.ar    1  UNL1        0.0111
     32 C         140.4765  144.4147  158.3466 C.ar    1  UNL1        0.0577
     33 CL        141.0261  144.7370  156.9886 Cl      1  UNL1       -0.0822
     34 C         140.7050  145.3569  159.4912 C.ar    1  UNL1        0.0111
     35 C         140.1553  145.0345  160.8491 C.ar    1  UNL1       -0.0012
@<TRIPOS>BOND
     1    14    15    1
     2    15    16    1
     3    15    17   am
     4    17    18    2
     5    17     1    1
     6     1    19    1
     7    19    20    1
     8    20    21    1
     9    21    22    1
    10    22    23    1
    11    23    24    1
    12    24    25    1
    13    24    29    1
    14    29    30   ar
    15    30    31   ar
    16    31    32   ar
    17    32    33    1
    18    32    34   ar
    19    34    35   ar
    20    24    26    1
    21    26    27    1
    22     1     2    1
    23     2     3   ar
    24     3     4   ar
    25     4     5   ar
    26     5     6   ar
    27     6     7   ar
    28     1     8    1
    29     8     9   ar
    30     9    10   ar
    31    10    11   ar
    32    11    12   ar
    33    12    13   ar
    34    27    21    1
    35     7     2   ar
    36    13     8   ar
    37    35    29   ar
    38    25    28    1
@<TRIPOS>MOLECULE
*****
 35 38 0 0 0
SMALL
GASTEIGER

@<TRIPOS>ATOM
      1 C         141.2966  141.5289  165.3833 C.3     1  UNL1        0.1078
      2 C         140.0738  142.3342  165.0575 C.ar    1  UNL1       -0.0108
      3 C         138.9653  141.7225  164.2529 C.ar    1  UNL1       -0.0035
      4 C         137.7425  142.5278  163.9271 C.ar    1  UNL1       -0.0003
      5 C         137.6281  143.9448  164.4058 C.ar    1  UNL1       -0.0000
      6 C         138.7365  144.5564  165.2104 C.ar    1  UNL1       -0.0003
      7 C         139.9594  143.7511  165.5362 C.ar    1  UNL1       -0.0035
      8 C         142.1081  142.3870  164.4586 C.ar    1  UNL1       -0.0108
      9 C         143.2896  143.1473  164.9842 C.ar    1  UNL1       -0.0035
     10 C         144.1010  144.0054  164.0595 C.ar    1  UNL1       -0.0003
     11 C         143.7311  144.1033  162.6091 C.ar    1  UNL1       -0.0000
     12 C         142.5496  143.3432  162.0835 C.ar    1  UNL1       -0.0003
     13 C         141.7381  142.4850  163.0082 C.ar    1  UNL1       -0.0035
     14 C         140.9466  142.1259  168.6092 C.3     1  UNL1        0.1149
     15 N         140.3844  141.0227  167.7627 N.am    1  UNL1       -0.2755
     16 C         139.5729  140.1645  168.6874 C.3     1  UNL1        0.1149
     17 C         140.4851  140.6708  166.3080 C.2     1  UNL1        0.2325
     18 O         139.7744  139.4609  165.7780 O.2     1  UNL1       -0.2742
     19 C         142.5195  140.7236  165.7091 C.3     1  UNL1        0.0341
     20 C         142.7143  139.3716  165.0893 C.3     1  UNL1        0.0732
     21 N         142.7848  139.2337  163.5973 N.3     1  UNL1       -0.2725
     22 C         144.0430  139.6020  162.8687 C.3     1  UNL1        0.0748
     23 C         144.1135  139.4641  161.3767 C.3     1  UNL1        0.0485
     24 C         142.9257  138.9577  160.6134 C.3     1  UNL1        0.1096
     25 O         143.8875  139.1766  159.4834 O.3     1  UNL1       -0.3826
     26 C         141.6674  138.5893  161.3421 C.3     1  UNL1        0.0485
     27 C         141.5969  138.7273  162.8340 C.3     1  UNL1        0.0748
     28 H         144.7267  139.5138  159.8338 H       1  UNL1        0.2107
     29 C         142.0719  138.5273  159.4576 C.ar    1  UNL1        0.0019
     30 C         142.6612  137.6919  158.3600 C.ar    1  UNL1       -0.0012
     31 C         141.8073  137.2616  157.2042 C.ar    1  UNL1        0.0111
     32 C         140.3643  137.6667  157.1461 C.ar    1  UNL1        0.0577
     33 CL        139.5104  137.2364  155.9902 Cl      1  UNL1       -0.0822
     34 C         139.7750  138.5022  158.2437 C.ar    1  UNL1        0.0111
     35 C         140.6288  138.9324  159.3995 C.ar    1  UNL1       -0.0012
@<TRIPOS>BOND
     1    14    15    1
     2    15    16    1
     3    15    17   am
     4    17    18    2
     5    17     1    1
     6     1    19    1
     7    19    20    1
     8    20    21    1
     9    21    22    1
    10    22    23    1
    11    23    24    1
    12    24    25    1
    13    24    29    1
    14    29    30   ar
    15    30    31   ar
    16    31    32   ar
    17    32    33    1
    18    32    34   ar
    19    34    35   ar
    20    24    26    1
    21    26    27    1
    22     1     2    1
    23     2     3   ar
    24     3     4   ar
    25     4     5   ar
    26     5     6   ar
    27     6     7   ar
    28     1     8    1
    29     8     9   ar
    30     9    10   ar
    31    10    11   ar
    32    11    12   ar
    33    12    13   ar
    34    27    21    1
    35     7     2   ar
    36    13     8   ar
    37    35    29   ar
    38    25    28    1
@<TRIPOS>MOLECULE
*****
 35 38 0 0 0
SMALL
GASTEIGER

@<TRIPOS>ATOM
      1 C         141.0448  141.5880  165.7217 C.3     1  UNL1        0.1078
      2 C         140.5577  141.5371  167.1394 C.ar    1  UNL1       -0.0108
      3 C         139.7398  140.3711  167.6101 C.ar    1  UNL1       -0.0035
      4 C         139.2528  140.3202  169.0279 C.ar    1  UNL1       -0.0003
      5 C         139.5835  141.4354  169.9751 C.ar    1  UNL1       -0.0000
      6 C         140.4014  142.6014  169.5044 C.ar    1  UNL1       -0.0003
      7 C         140.8885  142.6522  168.0865 C.ar    1  UNL1       -0.0035
      8 C         139.8454  142.4034  165.3389 C.ar    1  UNL1       -0.0108
      9 C         139.6974  143.8057  165.8505 C.ar    1  UNL1       -0.0035
     10 C         138.4980  144.6210  165.4677 C.ar    1  UNL1       -0.0003
     11 C         137.4465  144.0341  164.5733 C.ar    1  UNL1       -0.0000
     12 C         137.5944  142.6319  164.0617 C.ar    1  UNL1       -0.0003
     13 C         138.7938  141.8165  164.4445 C.ar    1  UNL1       -0.0035
     14 C         141.3380  138.3575  165.1184 C.3     1  UNL1        0.1149
     15 N         142.2869  139.3070  165.7878 N.am    1  UNL1       -0.2755
     16 C         143.4863  138.4917  166.1706 C.3     1  UNL1        0.1149
     17 C         142.2442  140.7726  166.1044 C.2     1  UNL1        0.2325
     18 O         143.4009  141.4228  166.8039 O.2     1  UNL1       -0.2742
     19 C         141.5319  141.6389  164.3038 C.3     1  UNL1        0.0341
     20 C         142.2295  142.8650  163.7940 C.3     1  UNL1        0.0732
     21 N         141.7283  143.5544  162.5596 N.3     1  UNL1       -0.2725
     22 C         140.8162  144.7391  162.6802 C.3     1  UNL1        0.0748
     23 C         140.3151  145.4284  161.4458 C.3     1  UNL1        0.0485
     24 C         140.7262  144.9331  160.0910 C.3     1  UNL1        0.1096
     25 O         139.8512  146.0847  159.6930 O.3     1  UNL1       -0.3826
     26 C         141.6383  143.7485  159.9704 C.3     1  UNL1        0.0485
     27 C         142.1394  143.0591  161.2047 C.3     1  UNL1        0.0748
     28 H         139.5022  146.5157  160.4888 H       1  UNL1        0.2107
     29 C         140.8333  144.8379  158.5978 C.ar    1  UNL1        0.0019
     30 C         139.9398  143.9012  157.8399 C.ar    1  UNL1       -0.0012
     31 C         140.0470  143.8060  156.3468 C.ar    1  UNL1        0.0111
     32 C         141.0478  144.6474  155.6116 C.ar    1  UNL1        0.0577
     33 CL        141.1549  144.5522  154.1184 Cl      1  UNL1       -0.0822
     34 C         141.9413  145.5840  156.3695 C.ar    1  UNL1        0.0111
     35 C         141.8340  145.6793  157.8625 C.ar    1  UNL1       -0.0012
@<TRIPOS>BOND
     1    14    15    1
     2    15    16    1
     3    15    17   am
     4    17    18    2
     5    17     1    1
     6     1    19    1
     7    19    20    1
     8    20    21    1
     9    21    22    1
    10    22    23    1
    11    23    24    1
    12    24    25    1
    13    24    29    1
    14    29    30   ar
    15    30    31   ar
    16    31    32   ar
    17    32    33    1
    18    32    34   ar
    19    34    35   ar
    20    24    26    1
    21    26    27    1
    22     1     2    1
    23     2     3   ar
    24     3     4   ar
    25     4     5   ar
    26     5     6   ar
    27     6     7   ar
    28     1     8    1
    29     8     9   ar
    30     9    10   ar
    31    10    11   ar
    32    11    12   ar
    33    12    13   ar
    34    27    21    1
    35     7     2   ar
    36    13     8   ar
    37    35    29   ar
    38    25    28    1
@<TRIPOS>MOLECULE
*****
 35 38 0 0 0
SMALL
GASTEIGER

@<TRIPOS>ATOM
      1 C         141.4830  141.5416  165.7339 C.3     1  UNL1        0.1078
      2 C         141.5524  142.1006  167.1241 C.ar    1  UNL1       -0.0108
      3 C         142.8051  141.9432  167.9340 C.ar    1  UNL1       -0.0035
      4 C         142.8745  142.5022  169.3242 C.ar    1  UNL1       -0.0003
      5 C         141.6912  143.2186  169.9045 C.ar    1  UNL1       -0.0000
      6 C         140.4385  143.3759  169.0946 C.ar    1  UNL1       -0.0003
      7 C         140.3691  142.8169  167.7043 C.ar    1  UNL1       -0.0035
      8 C         142.2251  142.7377  165.2159 C.ar    1  UNL1       -0.0108
      9 C         141.4887  143.8144  164.4752 C.ar    1  UNL1       -0.0035
     10 C         142.2308  145.0106  163.9572 C.ar    1  UNL1       -0.0003
     11 C         143.7094  145.1301  164.1797 C.ar    1  UNL1       -0.0000
     12 C         144.4459  144.0534  164.9203 C.ar    1  UNL1       -0.0003
     13 C         143.7037  142.8572  165.4384 C.ar    1  UNL1       -0.0035
     14 C         138.3114  140.9192  165.0710 C.3     1  UNL1        0.1149
     15 N         139.2972  140.1465  165.8961 N.am    1  UNL1       -0.2755
     16 C         138.5551  138.9504  166.4142 C.3     1  UNL1        0.1149
     17 C         140.7408  140.3454  166.2519 C.2     1  UNL1        0.2325
     18 O         141.4422  139.3482  167.1257 O.2     1  UNL1       -0.2742
     19 C         141.4135  140.9825  164.3436 C.3     1  UNL1        0.0341
     20 C         142.3897  139.9299  163.9089 C.3     1  UNL1        0.0732
     21 N         142.5394  139.6012  162.4530 N.3     1  UNL1       -0.2725
     22 C         143.7954  139.9776  161.7245 C.3     1  UNL1        0.0748
     23 C         143.9451  139.6489  160.2687 C.3     1  UNL1        0.0485
     24 C         142.8388  138.9439  159.5413 C.3     1  UNL1        0.1096
     25 O         143.8302  139.0934  158.4256 O.3     1  UNL1       -0.3826
     26 C         141.5828  138.5676  160.2698 C.3     1  UNL1        0.0485
     27 C         141.4331  138.8962  161.7257 C.3     1  UNL1        0.0748
     28 H         144.6222  139.5461  158.7554 H       1  UNL1        0.2107
     29 C         142.0769  138.2909  158.4265 C.ar    1  UNL1        0.0019
     30 C         140.6833  138.7430  158.1049 C.ar    1  UNL1       -0.0012
     31 C         139.9214  138.0899  156.9899 C.ar    1  UNL1        0.0111
     32 C         140.5531  136.9846  156.1967 C.ar    1  UNL1        0.0577
     33 CL        139.7911  136.3315  155.0817 Cl      1  UNL1       -0.0822
     34 C         141.9467  136.5325  156.5183 C.ar    1  UNL1        0.0111
     35 C         142.7086  137.1856  157.6331 C.ar    1  UNL1       -0.0012
@<TRIPOS>BOND
     1    14    15    1
     2    15    16    1
     3    15    17   am
     4    17    18    2
     5    17     1    1
     6     1    19    1
     7    19    20    1
     8    20    21    1
     9    21    22    1
    10    22    23    1
    11    23    24    1
    12    24    25    1
    13    24    29    1
    14    29    30   ar
    15    30    31   ar
    16    31    32   ar
    17    32    33    1
    18    32    34   ar
    19    34    35   ar
    20    24    26    1
    21    26    27    1
    22     1     2    1
    23     2     3   ar
    24     3     4   ar
    25     4     5   ar
    26     5     6   ar
    27     6     7   ar
    28     1     8    1
    29     8     9   ar
    30     9    10   ar
    31    10    11   ar
    32    11    12   ar
    33    12    13   ar
    34    27    21    1
    35     7     2   ar
    36    13     8   ar
    37    35    29   ar
    38    25    28    1
@<TRIPOS>MOLECULE
*****
 35 38 0 0 0
SMALL
GASTEIGER

@<TRIPOS>ATOM
      1 C         141.0814  141.3652  164.8705 C.3     1  UNL1        0.1078
      2 C         140.0025  142.3701  164.5950 C.ar    1  UNL1       -0.0108
      3 C         139.0084  142.1219  163.4994 C.ar    1  UNL1       -0.0035
      4 C         137.9295  143.1268  163.2239 C.ar    1  UNL1       -0.0003
      5 C         137.8445  144.3799  164.0439 C.ar    1  UNL1       -0.0000
      6 C         138.8385  144.6281  165.1395 C.ar    1  UNL1       -0.0003
      7 C         139.9175  143.6232  165.4150 C.ar    1  UNL1       -0.0035
      8 C         140.1501  140.6130  165.7743 C.ar    1  UNL1       -0.0108
      9 C         140.3431  140.6646  167.2609 C.ar    1  UNL1       -0.0035
     10 C         139.4118  139.9124  168.1647 C.ar    1  UNL1       -0.0003
     11 C         138.2874  139.1086  167.5818 C.ar    1  UNL1       -0.0000
     12 C         138.0944  139.0570  166.0952 C.ar    1  UNL1       -0.0003
     13 C         139.0258  139.8092  165.1914 C.ar    1  UNL1       -0.0035
     14 C         143.7618  142.9748  165.9243 C.3     1  UNL1        0.1149
     15 N         143.2084  142.8199  164.5388 N.am    1  UNL1       -0.2755
     16 C         144.1397  143.5721  163.6350 C.3     1  UNL1        0.1149
     17 C         142.0128  142.1174  163.9668 C.2     1  UNL1        0.2325
     18 O         141.7486  142.1672  162.4911 O.2     1  UNL1       -0.2742
     19 C         142.1605  140.3603  165.1461 C.3     1  UNL1        0.0341
     20 C         142.1080  139.0073  164.5006 C.3     1  UNL1        0.0732
     21 N         142.3105  138.8742  163.0202 N.3     1  UNL1       -0.2725
     22 C         143.6161  139.2787  162.4025 C.3     1  UNL1        0.0748
     23 C         143.8185  139.1455  160.9222 C.3     1  UNL1        0.0485
     24 C         142.7153  138.6078  160.0597 C.3     1  UNL1        0.1096
     25 O         143.7644  138.8555  159.0166 O.3     1  UNL1       -0.3826
     26 C         141.4097  138.2033  160.6775 C.3     1  UNL1        0.0485
     27 C         141.2073  138.3365  162.1577 C.3     1  UNL1        0.0748
     28 H         144.5607  139.2151  159.4378 H       1  UNL1        0.2107
     29 C         141.9766  138.1562  158.8349 C.ar    1  UNL1        0.0019
     30 C         142.6454  137.2450  157.8488 C.ar    1  UNL1       -0.0012
     31 C         141.9065  136.7934  156.6240 C.ar    1  UNL1        0.0111
     32 C         140.4988  137.2530  156.3853 C.ar    1  UNL1        0.0577
     33 CL        139.7600  136.8013  155.1604 Cl      1  UNL1       -0.0822
     34 C         139.8299  138.1642  157.3714 C.ar    1  UNL1        0.0111
     35 C         140.5688  138.6158  158.5961 C.ar    1  UNL1       -0.0012
@<TRIPOS>BOND
     1    14    15    1
     2    15    16    1
     3    15    17   am
     4    17    18    2
     5    17     1    1
     6     1    19    1
     7    19    20    1
     8    20    21    1
     9    21    22    1
    10    22    23    1
    11    23    24    1
    12    24    25    1
    13    24    29    1
    14    29    30   ar
    15    30    31   ar
    16    31    32   ar
    17    32    33    1
    18    32    34   ar
    19    34    35   ar
    20    24    26    1
    21    26    27    1
    22     1     2    1
    23     2     3   ar
    24     3     4   ar
    25     4     5   ar
    26     5     6   ar
    27     6     7   ar
    28     1     8    1
    29     8     9   ar
    30     9    10   ar
    31    10    11   ar
    32    11    12   ar
    33    12    13   ar
    34    27    21    1
    35     7     2   ar
    36    13     8   ar
    37    35    29   ar
    38    25    28    1
@<TRIPOS>MOLECULE
*****
 35 38 0 0 0
SMALL
GASTEIGER

@<TRIPOS>ATOM
      1 C         141.0042  141.5227  166.3817 C.3     1  UNL1        0.1078
      2 C         139.9057  142.3976  165.8546 C.ar    1  UNL1       -0.0108
      3 C         139.8747  143.8557  166.2050 C.ar    1  UNL1       -0.0035
      4 C         138.7762  144.7306  165.6780 C.ar    1  UNL1       -0.0003
      5 C         137.7086  144.1473  164.8004 C.ar    1  UNL1       -0.0000
      6 C         137.7396  142.6891  164.4499 C.ar    1  UNL1       -0.0003
      7 C         138.8382  141.8143  164.9770 C.ar    1  UNL1       -0.0035
      8 C         141.9528  142.1098  165.3790 C.ar    1  UNL1       -0.0108
      9 C         143.3078  142.5826  165.8157 C.ar    1  UNL1       -0.0035
     10 C         144.2564  143.1697  164.8130 C.ar    1  UNL1       -0.0003
     11 C         143.8502  143.2839  163.3736 C.ar    1  UNL1       -0.0000
     12 C         142.4953  142.8111  162.9369 C.ar    1  UNL1       -0.0003
     13 C         141.5466  142.2240  163.9396 C.ar    1  UNL1       -0.0035
     14 C         140.9416  142.3745  169.5685 C.3     1  UNL1        0.1149
     15 N         140.1021  141.3865  168.8143 N.am    1  UNL1       -0.2755
     16 C         139.1534  140.7994  169.8170 C.3     1  UNL1        0.1149
     17 C         140.0556  140.9357  167.3843 C.2     1  UNL1        0.2325
     18 O         139.0605  139.8977  166.9572 O.2     1  UNL1       -0.2742
     19 C         142.1028  140.6478  166.9088 C.3     1  UNL1        0.0341
     20 C         142.2237  139.2293  166.4365 C.3     1  UNL1        0.0732
     21 N         141.7092  138.8435  165.0813 N.3     1  UNL1       -0.2725
     22 C         140.3792  138.1625  164.9500 C.3     1  UNL1        0.0748
     23 C         139.8647  137.7768  163.5948 C.3     1  UNL1        0.0485
     24 C         140.6803  138.0720  162.3710 C.3     1  UNL1        0.1096
     25 O         139.4899  137.4142  161.7383 O.3     1  UNL1       -0.3826
     26 C         142.0103  138.7530  162.5023 C.3     1  UNL1        0.0485
     27 C         142.5247  139.1387  163.8575 C.3     1  UNL1        0.0748
     28 H         138.8564  137.1604  162.4276 H       1  UNL1        0.2107
     29 C         141.0824  138.1388  160.9274 C.ar    1  UNL1        0.0019
     30 C         140.0969  138.6000  159.8949 C.ar    1  UNL1       -0.0012
     31 C         140.4991  138.6667  158.4513 C.ar    1  UNL1        0.0111
     32 C         141.8867  138.2722  158.0404 C.ar    1  UNL1        0.0577
     33 CL        142.2888  138.3390  156.5967 Cl      1  UNL1       -0.0822
     34 C         142.8721  137.8111  159.0729 C.ar    1  UNL1        0.0111
     35 C         142.4700  137.7443  160.5164 C.ar    1  UNL1       -0.0012
@<TRIPOS>BOND
     1    14    15    1
     2    15    16    1
     3    15    17   am
     4    17    18    2
     5    17     1    1
     6     1    19    1
     7    19    20    1
     8    20    21    1
     9    21    22    1
    10    22    23    1
    11    23    24    1
    12    24    25    1
    13    24    29    1
    14    29    30   ar
    15    30    31   ar
    16    31    32   ar
    17    32    33    1
    18    32    34   ar
    19    34    35   ar
    20    24    26    1
    21    26    27    1
    22     1     2    1
    23     2     3   ar
    24     3     4   ar
    25     4     5   ar
    26     5     6   ar
    27     6     7   ar
    28     1     8    1
    29     8     9   ar
    30     9    10   ar
    31    10    11   ar
    32    11    12   ar
    33    12    13   ar
    34    27    21    1
    35     7     2   ar
    36    13     8   ar
    37    35    29   ar
    38    25    28    1
@<TRIPOS>MOLECULE
*****
 35 38 0 0 0
SMALL
GASTEIGER

@<TRIPOS>ATOM
      1 C         139.8201  140.6727  161.6251 C.3     1  UNL1        0.1078
      2 C         141.1693  141.0650  161.1000 C.ar    1  UNL1       -0.0108
      3 C         141.9285  140.1278  160.2083 C.ar    1  UNL1       -0.0035
      4 C         143.2777  140.5200  159.6832 C.ar    1  UNL1       -0.0003
      5 C         143.8678  141.8495  160.0498 C.ar    1  UNL1       -0.0000
      6 C         143.1085  142.7867  160.9415 C.ar    1  UNL1       -0.0003
      7 C         141.7592  142.3944  161.4666 C.ar    1  UNL1       -0.0035
      8 C         140.4663  139.6759  162.5408 C.ar    1  UNL1       -0.0108
      9 C         141.5366  140.1174  163.4946 C.ar    1  UNL1       -0.0035
     10 C         142.1828  139.1205  164.4104 C.ar    1  UNL1       -0.0003
     11 C         141.7588  137.6822  164.3725 C.ar    1  UNL1       -0.0000
     12 C         140.6885  137.2407  163.4188 C.ar    1  UNL1       -0.0003
     13 C         140.0422  138.2376  162.5029 C.ar    1  UNL1       -0.0035
     14 C         138.7759  139.9597  158.5776 C.3     1  UNL1        0.1149
     15 N         138.7309  141.2516  159.3384 N.am    1  UNL1       -0.2755
     16 C         138.0847  142.2484  158.4226 C.3     1  UNL1        0.1149
     17 C         139.1739  141.6695  160.7093 C.2     1  UNL1        0.2325
     18 O         138.9706  143.0843  161.1642 O.2     1  UNL1       -0.2742
     19 C         138.4708  140.2805  162.1501 C.3     1  UNL1        0.0341
     20 C         137.8841  141.0041  163.3257 C.3     1  UNL1        0.0732
     21 N         138.5272  140.8868  164.6759 N.3     1  UNL1       -0.2725
     22 C         138.2807  139.6723  165.5210 C.3     1  UNL1        0.0748
     23 C         138.9237  139.5550  166.8710 C.3     1  UNL1        0.0485
     24 C         139.8132  140.6522  167.3760 C.3     1  UNL1        0.1096
     25 O         139.8842  139.7044  168.5364 O.3     1  UNL1       -0.3826
     26 C         140.0597  141.8667  166.5309 C.3     1  UNL1        0.0485
     27 C         139.4167  141.9840  165.1808 C.3     1  UNL1        0.0748
     28 H         139.3412  138.9228  168.3492 H       1  UNL1        0.2107
     29 C         140.7274  141.4201  168.2840 C.ar    1  UNL1        0.0019
     30 C         142.1480  140.9755  168.4689 C.ar    1  UNL1       -0.0012
     31 C         143.0621  141.7436  169.3770 C.ar    1  UNL1        0.0111
     32 C         142.5556  142.9562  170.1001 C.ar    1  UNL1        0.0577
     33 CL        143.4698  143.7242  171.0082 Cl      1  UNL1       -0.0822
     34 C         141.1350  143.4008  169.9152 C.ar    1  UNL1        0.0111
     35 C         140.2209  142.6328  169.0072 C.ar    1  UNL1       -0.0012
@<TRIPOS>BOND
     1    14    15    1
     2    15    16    1
     3    15    17   am
     4    17    18    2
     5    17     1    1
     6     1    19    1
     7    19    20    1
     8    20    21    1
     9    21    22    1
    10    22    23    1
    11    23    24    1
    12    24    25    1
    13    24    29    1
    14    29    30   ar
    15    30    31   ar
    16    31    32   ar
    17    32    33    1
    18    32    34   ar
    19    34    35   ar
    20    24    26    1
    21    26    27    1
    22     1     2    1
    23     2     3   ar
    24     3     4   ar
    25     4     5   ar
    26     5     6   ar
    27     6     7   ar
    28     1     8    1
    29     8     9   ar
    30     9    10   ar
    31    10    11   ar
    32    11    12   ar
    33    12    13   ar
    34    27    21    1
    35     7     2   ar
    36    13     8   ar
    37    35    29   ar
    38    25    28    1
@<TRIPOS>MOLECULE
*****
 35 38 0 0 0
SMALL
GASTEIGER

@<TRIPOS>ATOM
      1 C         141.2935  141.8641  165.5052 C.3     1  UNL1        0.1078
      2 C         140.0433  142.6327  165.1957 C.ar    1  UNL1       -0.0108
      3 C         138.9945  142.0325  164.3070 C.ar    1  UNL1       -0.0035
      4 C         137.7442  142.8012  163.9974 C.ar    1  UNL1       -0.0003
      5 C         137.5426  144.1702  164.5766 C.ar    1  UNL1       -0.0000
      6 C         138.5914  144.7704  165.4652 C.ar    1  UNL1       -0.0003
      7 C         139.8418  144.0017  165.7748 C.ar    1  UNL1       -0.0035
      8 C         142.0940  142.8392  164.6938 C.ar    1  UNL1       -0.0108
      9 C         143.3500  143.4327  165.2596 C.ar    1  UNL1       -0.0035
     10 C         144.1504  144.4078  164.4482 C.ar    1  UNL1       -0.0003
     11 C         143.6948  144.7895  163.0710 C.ar    1  UNL1       -0.0000
     12 C         142.4388  144.1960  162.5052 C.ar    1  UNL1       -0.0003
     13 C         141.6384  143.2209  163.3166 C.ar    1  UNL1       -0.0035
     14 C         140.7604  142.1737  168.7465 C.3     1  UNL1        0.1149
     15 N         140.3047  141.1140  167.7877 N.am    1  UNL1       -0.2755
     16 C         139.5043  140.1388  168.5991 C.3     1  UNL1        0.1149
     17 C         140.4931  140.8889  166.3166 C.2     1  UNL1        0.2325
     18 O         139.8811  139.6888  165.6571 O.2     1  UNL1       -0.2742
     19 C         142.5439  141.0953  165.8148 C.3     1  UNL1        0.0341
     20 C         142.9451  139.9366  164.9510 C.3     1  UNL1        0.0732
     21 N         142.8979  140.0631  163.4570 N.3     1  UNL1       -0.2725
     22 C         141.7005  139.5700  162.7001 C.3     1  UNL1        0.0748
     23 C         141.6532  139.6965  161.2062 C.3     1  UNL1        0.0485
     24 C         142.8034  140.3161  160.4692 C.3     1  UNL1        0.1096
     25 O         141.8960  140.0001  159.3175 O.3     1  UNL1       -0.3826
     26 C         144.0009  140.8092  161.2262 C.3     1  UNL1        0.0485
     27 C         144.0481  140.6827  162.7200 C.3     1  UNL1        0.0748
     28 H         141.0859  139.5824  159.6493 H       1  UNL1        0.2107
     29 C         143.6384  140.8259  159.3322 C.ar    1  UNL1        0.0019
     30 C         144.3707  142.1284  159.4644 C.ar    1  UNL1       -0.0012
     31 C         145.2057  142.6381  158.3273 C.ar    1  UNL1        0.0111
     32 C         145.3084  141.8454  157.0580 C.ar    1  UNL1        0.0577
     33 CL        146.1434  142.3553  155.9209 Cl      1  UNL1       -0.0822
     34 C         144.5762  140.5430  156.9259 C.ar    1  UNL1        0.0111
     35 C         143.7412  140.0332  158.0629 C.ar    1  UNL1       -0.0012
@<TRIPOS>BOND
     1    14    15    1
     2    15    16    1
     3    15    17   am
     4    17    18    2
     5    17     1    1
     6     1    19    1
     7    19    20    1
     8    20    21    1
     9    21    22    1
    10    22    23    1
    11    23    24    1
    12    24    25    1
    13    24    29    1
    14    29    30   ar
    15    30    31   ar
    16    31    32   ar
    17    32    33    1
    18    32    34   ar
    19    34    35   ar
    20    24    26    1
    21    26    27    1
    22     1     2    1
    23     2     3   ar
    24     3     4   ar
    25     4     5   ar
    26     5     6   ar
    27     6     7   ar
    28     1     8    1
    29     8     9   ar
    30     9    10   ar
    31    10    11   ar
    32    11    12   ar
    33    12    13   ar
    34    27    21    1
    35     7     2   ar
    36    13     8   ar
    37    35    29   ar
    38    25    28    1
