@<TRIPOS>MOLECULE
*****
 36 39 0 0 0
SMALL
GASTEIGER

@<TRIPOS>ATOM
      1 N         138.6622  139.1163  163.5310 N.3     1  UNL1       -0.2698
      2 N         139.9177  140.0689  167.7460 N.pl3   1  UNL1       -0.2769
      3 C         138.5812  139.4399  167.4856 C.3     1  UNL1        0.0950
      4 C         138.1627  139.1224  166.0806 C.3     1  UNL1        0.0375
      5 C         139.0808  139.4339  164.9360 C.3     1  UNL1        0.0612
      6 C         140.4174  140.0629  165.1964 C.3     1  UNL1        0.0375
      7 C         140.8358  140.3804  166.6014 C.3     1  UNL1        0.0950
      8 N         142.2632  142.3418  171.8950 N.pl3   1  UNL1       -0.3278
      9 C         141.4144  141.4313  171.0581 C.ar    1  UNL1        0.2099
     10 N         141.2845  141.4728  169.5643 N.ar    1  UNL1       -0.1804
     11 C         140.3363  140.3865  169.1510 C.ar    1  UNL1        0.2395
     12 N         139.8800  139.6736  170.3894 N.ar    1  UNL1       -0.1349
     13 N         140.5463  140.3192  171.5680 N.ar    1  UNL1       -0.2453
     14 H         142.8011  143.0458  171.4657 H       1  UNL1        0.1451
     15 H         142.2824  142.2354  172.8735 H       1  UNL1        0.1451
     16 H         140.4337  140.0589  172.5107 H       1  UNL1        0.1919
     17 C         139.1072  137.8368  162.8869 C.3     1  UNL1        0.0770
     18 C         140.1923  137.8561  161.8514 C.3     1  UNL1        0.0437
     19 C         141.4281  138.6762  162.0752 C.ar    1  UNL1       -0.0207
     20 C         142.5719  138.1094  162.8629 C.ar    1  UNL1       -0.0034
     21 C         143.8077  138.9295  163.0867 C.ar    1  UNL1        0.0111
     22 C         143.8998  140.3165  162.5228 C.ar    1  UNL1        0.0577
     23 CL        145.1356  141.1366  162.7467 Cl      1  UNL1       -0.0822
     24 C         142.7560  140.8833  161.7352 C.ar    1  UNL1        0.0111
     25 C         141.5201  140.0631  161.5113 C.ar    1  UNL1       -0.0034
     26 C         137.7987  140.0783  162.7701 C.3     1  UNL1        0.0991
     27 C         138.1833  141.5256  162.6850 C.ar    1  UNL1       -0.0062
     28 C         138.6471  142.1030  161.3805 C.ar    1  UNL1       -0.0029
     29 C         139.0317  143.5503  161.2954 C.ar    1  UNL1       -0.0003
     30 C         138.9524  144.4203  162.5147 C.ar    1  UNL1        0.0038
     31 C         138.4886  143.8431  163.8191 C.ar    1  UNL1        0.0712
     32 C         138.1040  142.3956  163.9043 C.ar    1  UNL1        0.0009
     33 C         138.4094  144.7131  165.0385 C.3     1  UNL1        0.4186
     34 F         138.3301  145.5832  166.2578 F       1  UNL1       -0.1659
     35 F         139.8546  145.0785  164.8717 F       1  UNL1       -0.1659
     36 F         136.9641  144.3478  165.2052 F       1  UNL1       -0.1659
@<TRIPOS>BOND
     1     8     9    1
     2     9    10   ar
     3    10    11   ar
     4    11     2    1
     5     2     3    1
     6     3     4    1
     7     4     5    1
     8     5     1    1
     9     1    17    1
    10    17    18    1
    11    18    19    1
    12    19    20   ar
    13    20    21   ar
    14    21    22   ar
    15    22    23    1
    16    22    24   ar
    17    24    25   ar
    18     1    26    1
    19    26    27    1
    20    27    28   ar
    21    28    29   ar
    22    29    30   ar
    23    30    31   ar
    24    31    33    1
    25    33    34    1
    26    33    35    1
    27    33    36    1
    28    31    32   ar
    29     5     6    1
    30     6     7    1
    31    11    12   ar
    32    12    13   ar
    33    13     9   ar
    34     7     2    1
    35    25    19   ar
    36    32    27   ar
    37     8    14    1
    38     8    15    1
    39    13    16    1
@<TRIPOS>MOLECULE
*****
 36 39 0 0 0
SMALL
GASTEIGER

@<TRIPOS>ATOM
      1 N         138.2710  142.9591  163.7591 N.3     1  UNL1       -0.2698
      2 N         140.1187  144.7839  160.0842 N.pl3   1  UNL1       -0.2769
      3 C         139.6517  143.3587  160.0600 C.3     1  UNL1        0.0950
      4 C         139.0358  142.7505  161.2849 C.3     1  UNL1        0.0375
      5 C         138.8869  143.5674  162.5341 C.3     1  UNL1        0.0612
      6 C         139.3540  144.9926  162.5583 C.3     1  UNL1        0.0375
      7 C         139.9699  145.6009  161.3333 C.3     1  UNL1        0.0950
      8 N         140.7000  146.9750  155.3152 N.pl3   1  UNL1       -0.3278
      9 C         141.0018  146.3994  156.6671 C.ar    1  UNL1        0.2099
     10 N         139.9954  145.8647  157.6424 N.ar    1  UNL1       -0.1804
     11 C         140.7347  145.3923  158.8591 C.ar    1  UNL1        0.2395
     12 N         142.1980  145.6350  158.6358 N.ar    1  UNL1       -0.1349
     13 N         142.3631  146.2574  157.2810 N.ar    1  UNL1       -0.2453
     14 H         139.7692  147.0259  154.9985 H       1  UNL1        0.1451
     15 H         141.4327  147.3018  154.7446 H       1  UNL1        0.1451
     16 H         143.2153  146.5256  156.8674 H       1  UNL1        0.1919
     17 C         138.3456  143.6794  165.0727 C.3     1  UNL1        0.0770
     18 C         139.6590  143.8033  165.7866 C.3     1  UNL1        0.0437
     19 C         140.5146  142.5898  165.9991 C.ar    1  UNL1       -0.0207
     20 C         140.3987  141.8038  167.2714 C.ar    1  UNL1       -0.0034
     21 C         141.2543  140.5902  167.4839 C.ar    1  UNL1        0.0111
     22 C         142.2258  140.1626  166.4240 C.ar    1  UNL1        0.0577
     23 CL        143.0814  138.9490  166.6364 Cl      1  UNL1       -0.0822
     24 C         142.3417  140.9485  165.1516 C.ar    1  UNL1        0.0111
     25 C         141.4860  142.1621  164.9392 C.ar    1  UNL1       -0.0034
     26 C         137.5804  141.6304  163.6705 C.3     1  UNL1        0.0991
     27 C         138.3037  140.3807  164.0765 C.ar    1  UNL1       -0.0062
     28 C         138.0569  139.7764  165.4271 C.ar    1  UNL1       -0.0029
     29 C         138.7802  138.5267  165.8331 C.ar    1  UNL1       -0.0003
     30 C         139.7504  137.8811  164.8886 C.ar    1  UNL1        0.0038
     31 C         139.9972  138.4853  163.5381 C.ar    1  UNL1        0.0712
     32 C         139.2739  139.7351  163.1320 C.ar    1  UNL1        0.0009
     33 C         140.9673  137.8398  162.5936 C.3     1  UNL1        0.4186
     34 F         141.9375  137.1942  161.6491 F       1  UNL1       -0.1659
     35 F         139.8581  137.6123  161.6098 F       1  UNL1       -0.1659
     36 F         142.0765  138.0673  163.5774 F       1  UNL1       -0.1659
@<TRIPOS>BOND
     1     8     9    1
     2     9    10   ar
     3    10    11   ar
     4    11     2    1
     5     2     3    1
     6     3     4    1
     7     4     5    1
     8     5     1    1
     9     1    17    1
    10    17    18    1
    11    18    19    1
    12    19    20   ar
    13    20    21   ar
    14    21    22   ar
    15    22    23    1
    16    22    24   ar
    17    24    25   ar
    18     1    26    1
    19    26    27    1
    20    27    28   ar
    21    28    29   ar
    22    29    30   ar
    23    30    31   ar
    24    31    33    1
    25    33    34    1
    26    33    35    1
    27    33    36    1
    28    31    32   ar
    29     5     6    1
    30     6     7    1
    31    11    12   ar
    32    12    13   ar
    33    13     9   ar
    34     7     2    1
    35    25    19   ar
    36    32    27   ar
    37     8    14    1
    38     8    15    1
    39    13    16    1
@<TRIPOS>MOLECULE
*****
 36 39 0 0 0
SMALL
GASTEIGER

@<TRIPOS>ATOM
      1 N         139.0887  143.4907  164.1856 N.3     1  UNL1       -0.2698
      2 N         140.4568  144.9841  160.1671 N.pl3   1  UNL1       -0.2769
      3 C         140.5676  143.5264  160.5030 C.3     1  UNL1        0.0950
      4 C         140.1116  143.0286  161.8424 C.3     1  UNL1        0.0375
      5 C         139.5447  143.9886  162.8461 C.3     1  UNL1        0.0612
      6 C         139.4339  145.4462  162.5102 C.3     1  UNL1        0.0375
      7 C         139.8900  145.9440  161.1708 C.3     1  UNL1        0.0950
      8 N         140.4292  146.7985  155.2084 N.pl3   1  UNL1       -0.3278
      9 C         140.9001  146.3159  156.5484 C.ar    1  UNL1        0.2099
     10 N         140.0249  145.8844  157.6876 N.ar    1  UNL1       -0.1804
     11 C         140.9128  145.4819  158.8276 C.ar    1  UNL1        0.2395
     12 N         142.3368  145.6647  158.3930 N.ar    1  UNL1       -0.1349
     13 N         142.3290  146.1802  156.9844 N.ar    1  UNL1       -0.2453
     14 H         139.4653  146.8529  155.0158 H       1  UNL1        0.1451
     15 H         141.0840  147.0607  154.5217 H       1  UNL1        0.1451
     16 H         143.1223  146.3921  156.4413 H       1  UNL1        0.1919
     17 C         137.7277  142.8779  164.3344 C.3     1  UNL1        0.0770
     18 C         137.4278  141.5534  163.6972 C.3     1  UNL1        0.0437
     19 C         138.3320  140.3818  163.9414 C.ar    1  UNL1       -0.0207
     20 C         139.2963  139.9443  162.8789 C.ar    1  UNL1       -0.0034
     21 C         140.2005  138.7727  163.1231 C.ar    1  UNL1        0.0111
     22 C         140.1405  138.0384  164.4298 C.ar    1  UNL1        0.0577
     23 CL        141.0446  136.8668  164.6740 Cl      1  UNL1       -0.0822
     24 C         139.1762  138.4759  165.4923 C.ar    1  UNL1        0.0111
     25 C         138.2720  139.6476  165.2480 C.ar    1  UNL1       -0.0034
     26 C         139.9936  143.6058  165.3763 C.3     1  UNL1        0.0991
     27 C         140.7637  142.4095  165.8514 C.ar    1  UNL1       -0.0062
     28 C         141.8335  141.8135  164.9850 C.ar    1  UNL1       -0.0029
     29 C         142.6035  140.6172  165.4601 C.ar    1  UNL1       -0.0003
     30 C         142.3039  140.0168  166.8017 C.ar    1  UNL1        0.0038
     31 C         141.2343  140.6126  167.6681 C.ar    1  UNL1        0.0712
     32 C         140.4641  141.8090  167.1930 C.ar    1  UNL1        0.0009
     33 C         140.9347  140.0122  169.0096 C.3     1  UNL1        0.4186
     34 F         140.6351  139.4118  170.3512 F       1  UNL1       -0.1659
     35 F         139.5073  139.8047  168.5980 F       1  UNL1       -0.1659
     36 F         142.3621  140.2198  169.4213 F       1  UNL1       -0.1659
@<TRIPOS>BOND
     1     8     9    1
     2     9    10   ar
     3    10    11   ar
     4    11     2    1
     5     2     3    1
     6     3     4    1
     7     4     5    1
     8     5     1    1
     9     1    17    1
    10    17    18    1
    11    18    19    1
    12    19    20   ar
    13    20    21   ar
    14    21    22   ar
    15    22    23    1
    16    22    24   ar
    17    24    25   ar
    18     1    26    1
    19    26    27    1
    20    27    28   ar
    21    28    29   ar
    22    29    30   ar
    23    30    31   ar
    24    31    33    1
    25    33    34    1
    26    33    35    1
    27    33    36    1
    28    31    32   ar
    29     5     6    1
    30     6     7    1
    31    11    12   ar
    32    12    13   ar
    33    13     9   ar
    34     7     2    1
    35    25    19   ar
    36    32    27   ar
    37     8    14    1
    38     8    15    1
    39    13    16    1
@<TRIPOS>MOLECULE
*****
 36 39 0 0 0
SMALL
GASTEIGER

@<TRIPOS>ATOM
      1 N         139.1331  143.4268  164.2673 N.3     1  UNL1       -0.2698
      2 N         140.4787  144.9910  160.2682 N.pl3   1  UNL1       -0.2769
      3 C         140.7120  143.5538  160.6285 C.3     1  UNL1        0.0950
      4 C         140.2635  143.0324  161.9615 C.3     1  UNL1        0.0375
      5 C         139.5817  143.9483  162.9342 C.3     1  UNL1        0.0612
      6 C         139.3483  145.3855  162.5740 C.3     1  UNL1        0.0375
      7 C         139.7969  145.9069  161.2410 C.3     1  UNL1        0.0950
      8 N         140.4315  147.0713  155.4152 N.pl3   1  UNL1       -0.3278
      9 C         140.9055  146.4687  156.7045 C.ar    1  UNL1        0.2099
     10 N         140.0391  146.0678  157.8614 N.ar    1  UNL1       -0.1804
     11 C         140.9272  145.5125  158.9352 C.ar    1  UNL1        0.2395
     12 N         142.3426  145.5702  158.4418 N.ar    1  UNL1       -0.1349
     13 N         142.3292  146.1612  157.0632 N.ar    1  UNL1       -0.2453
     14 H         139.4715  147.2363  155.2726 H       1  UNL1        0.1451
     15 H         141.0805  147.3019  154.7117 H       1  UNL1        0.1451
     16 H         143.1166  146.3194  156.4938 H       1  UNL1        0.1919
     17 C         137.7770  142.8021  164.4106 C.3     1  UNL1        0.0770
     18 C         137.4790  141.4940  163.7396 C.3     1  UNL1        0.0437
     19 C         138.3760  140.3133  163.9664 C.ar    1  UNL1       -0.0207
     20 C         138.3054  139.5551  165.2587 C.ar    1  UNL1       -0.0034
     21 C         139.2023  138.3745  165.4856 C.ar    1  UNL1        0.0111
     22 C         140.1698  137.9519  164.4200 C.ar    1  UNL1        0.0577
     23 CL        141.0667  136.7712  164.6468 Cl      1  UNL1       -0.0822
     24 C         140.2404  138.7101  163.1277 C.ar    1  UNL1        0.0111
     25 C         139.3435  139.8908  162.9009 C.ar    1  UNL1       -0.0034
     26 C         140.0408  143.5301  165.4570 C.3     1  UNL1        0.0991
     27 C         140.7480  142.3103  165.9689 C.ar    1  UNL1       -0.0062
     28 C         140.4302  141.7768  167.3344 C.ar    1  UNL1       -0.0029
     29 C         141.1374  140.5570  167.8463 C.ar    1  UNL1       -0.0003
     30 C         142.1624  139.8708  166.9928 C.ar    1  UNL1        0.0038
     31 C         142.4803  140.4043  165.6274 C.ar    1  UNL1        0.0712
     32 C         141.7731  141.6241  165.1154 C.ar    1  UNL1        0.0009
     33 C         143.5053  139.7181  164.7740 C.3     1  UNL1        0.4186
     34 F         144.5303  139.0319  163.9205 F       1  UNL1       -0.1659
     35 F         143.5513  138.5771  165.7466 F       1  UNL1       -0.1659
     36 F         143.4593  140.8591  163.8013 F       1  UNL1       -0.1659
@<TRIPOS>BOND
     1     8     9    1
     2     9    10   ar
     3    10    11   ar
     4    11     2    1
     5     2     3    1
     6     3     4    1
     7     4     5    1
     8     5     1    1
     9     1    17    1
    10    17    18    1
    11    18    19    1
    12    19    20   ar
    13    20    21   ar
    14    21    22   ar
    15    22    23    1
    16    22    24   ar
    17    24    25   ar
    18     1    26    1
    19    26    27    1
    20    27    28   ar
    21    28    29   ar
    22    29    30   ar
    23    30    31   ar
    24    31    33    1
    25    33    34    1
    26    33    35    1
    27    33    36    1
    28    31    32   ar
    29     5     6    1
    30     6     7    1
    31    11    12   ar
    32    12    13   ar
    33    13     9   ar
    34     7     2    1
    35    25    19   ar
    36    32    27   ar
    37     8    14    1
    38     8    15    1
    39    13    16    1
@<TRIPOS>MOLECULE
*****
 36 39 0 0 0
SMALL
GASTEIGER

@<TRIPOS>ATOM
      1 N         141.9497  143.4344  164.7631 N.3     1  UNL1       -0.2698
      2 N         141.3515  144.9832  160.5806 N.pl3   1  UNL1       -0.2769
      3 C         140.5120  145.5145  161.7043 C.3     1  UNL1        0.0950
      4 C         140.7114  144.9983  163.0984 C.3     1  UNL1        0.0375
      5 C         141.7503  143.9507  163.3689 C.3     1  UNL1        0.0612
      6 C         142.5899  143.4193  162.2452 C.3     1  UNL1        0.0375
      7 C         142.3905  143.9356  160.8510 C.3     1  UNL1        0.0950
      8 N         139.0668  146.6324  156.1150 N.pl3   1  UNL1       -0.3278
      9 C         140.1020  146.2574  157.1338 C.ar    1  UNL1        0.2099
     10 N         139.8322  145.7440  158.5171 N.ar    1  UNL1       -0.1804
     11 C         141.1522  145.4994  159.1863 C.ar    1  UNL1        0.2395
     12 N         142.2377  145.8616  158.2166 N.ar    1  UNL1       -0.1349
     13 N         141.5887  146.3301  156.9481 N.ar    1  UNL1       -0.2453
     14 H         138.1101  146.5495  156.3318 H       1  UNL1        0.1451
     15 H         139.3442  146.9613  155.2295 H       1  UNL1        0.1451
     16 H         142.0564  146.6323  156.1362 H       1  UNL1        0.1919
     17 C         143.3315  143.1256  165.2581 C.3     1  UNL1        0.0770
     18 C         144.0393  141.8907  164.7845 C.3     1  UNL1        0.0437
     19 C         143.2971  140.5906  164.6897 C.ar    1  UNL1       -0.0207
     20 C         142.7300  140.1449  163.3745 C.ar    1  UNL1       -0.0034
     21 C         141.9878  138.8449  163.2797 C.ar    1  UNL1        0.0111
     22 C         141.8128  137.9904  164.5002 C.ar    1  UNL1        0.0577
     23 CL        141.0706  136.6904  164.4054 Cl      1  UNL1       -0.0822
     24 C         142.3799  138.4362  165.8154 C.ar    1  UNL1        0.0111
     25 C         143.1221  139.7363  165.9101 C.ar    1  UNL1       -0.0034
     26 C         140.7671  143.2271  165.6623 C.3     1  UNL1        0.0991
     27 C         140.0351  141.9179  165.6489 C.ar    1  UNL1       -0.0062
     28 C         139.9075  141.1170  166.9107 C.ar    1  UNL1       -0.0029
     29 C         139.1755  139.8078  166.8973 C.ar    1  UNL1       -0.0003
     30 C         138.5710  139.2996  165.6220 C.ar    1  UNL1        0.0038
     31 C         138.6985  140.1005  164.3602 C.ar    1  UNL1        0.0712
     32 C         139.4306  141.4097  164.3736 C.ar    1  UNL1        0.0009
     33 C         138.0940  139.5923  163.0850 C.3     1  UNL1        0.4186
     34 F         137.4896  139.0840  161.8097 F       1  UNL1       -0.1659
     35 F         138.3967  138.1838  163.5028 F       1  UNL1       -0.1659
     36 F         137.7913  141.0007  162.6671 F       1  UNL1       -0.1659
@<TRIPOS>BOND
     1     8     9    1
     2     9    10   ar
     3    10    11   ar
     4    11     2    1
     5     2     3    1
     6     3     4    1
     7     4     5    1
     8     5     1    1
     9     1    17    1
    10    17    18    1
    11    18    19    1
    12    19    20   ar
    13    20    21   ar
    14    21    22   ar
    15    22    23    1
    16    22    24   ar
    17    24    25   ar
    18     1    26    1
    19    26    27    1
    20    27    28   ar
    21    28    29   ar
    22    29    30   ar
    23    30    31   ar
    24    31    33    1
    25    33    34    1
    26    33    35    1
    27    33    36    1
    28    31    32   ar
    29     5     6    1
    30     6     7    1
    31    11    12   ar
    32    12    13   ar
    33    13     9   ar
    34     7     2    1
    35    25    19   ar
    36    32    27   ar
    37     8    14    1
    38     8    15    1
    39    13    16    1
@<TRIPOS>MOLECULE
*****
 36 39 0 0 0
SMALL
GASTEIGER

@<TRIPOS>ATOM
      1 N         138.2391  140.6575  162.3238 N.3     1  UNL1       -0.2698
      2 N         140.0888  143.6714  159.5409 N.pl3   1  UNL1       -0.2769
      3 C         140.4208  143.6983  161.0034 C.3     1  UNL1        0.0950
      4 C         139.8042  142.6937  161.9310 C.3     1  UNL1        0.0375
      5 C         138.8556  141.6621  161.3961 C.3     1  UNL1        0.0612
      6 C         138.5237  141.6352  159.9336 C.3     1  UNL1        0.0375
      7 C         139.1402  142.6398  159.0060 C.3     1  UNL1        0.0950
      8 N         140.7601  147.1075  155.5882 N.pl3   1  UNL1       -0.3278
      9 C         141.0139  146.2555  156.7963 C.ar    1  UNL1        0.2099
     10 N         140.0319  145.3207  157.4380 N.ar    1  UNL1       -0.1804
     11 C         140.7054  144.6761  158.6132 C.ar    1  UNL1        0.2395
     12 N         142.1036  145.2125  158.6978 N.ar    1  UNL1       -0.1349
     13 N         142.2943  146.1886  157.5749 N.ar    1  UNL1       -0.2453
     14 H         139.8820  147.0822  155.1437 H       1  UNL1        0.1451
     15 H         141.4715  147.6920  155.2398 H       1  UNL1        0.1451
     16 H         143.1156  146.6963  157.3827 H       1  UNL1        0.1919
     17 C         138.1016  139.2265  161.8955 C.3     1  UNL1        0.0770
     18 C         139.3238  138.3729  161.7284 C.3     1  UNL1        0.0437
     19 C         140.4058  138.4009  162.7668 C.ar    1  UNL1       -0.0207
     20 C         140.3868  137.4145  163.8967 C.ar    1  UNL1       -0.0034
     21 C         141.4689  137.4425  164.9350 C.ar    1  UNL1        0.0111
     22 C         142.5701  138.4570  164.8436 C.ar    1  UNL1        0.0577
     23 CL        143.6521  138.4850  165.8820 Cl      1  UNL1       -0.0822
     24 C         142.5891  139.4434  163.7137 C.ar    1  UNL1        0.0111
     25 C         141.5069  139.4154  162.6753 C.ar    1  UNL1       -0.0034
     26 C         137.7600  141.0838  163.6798 C.3     1  UNL1        0.0991
     27 C         138.5414  140.7081  164.9037 C.ar    1  UNL1       -0.0062
     28 C         138.0638  139.5923  165.7853 C.ar    1  UNL1       -0.0029
     29 C         138.8453  139.2166  167.0093 C.ar    1  UNL1       -0.0003
     30 C         140.1044  139.9565  167.3517 C.ar    1  UNL1        0.0038
     31 C         140.5820  141.0721  166.4701 C.ar    1  UNL1        0.0712
     32 C         139.8005  141.4480  165.2461 C.ar    1  UNL1        0.0009
     33 C         141.8411  141.8120  166.8125 C.3     1  UNL1        0.4186
     34 F         143.1002  142.5519  167.1549 F       1  UNL1       -0.1659
     35 F         142.2359  140.7076  167.7476 F       1  UNL1       -0.1659
     36 F         141.4464  142.9165  165.8775 F       1  UNL1       -0.1659
@<TRIPOS>BOND
     1     8     9    1
     2     9    10   ar
     3    10    11   ar
     4    11     2    1
     5     2     3    1
     6     3     4    1
     7     4     5    1
     8     5     1    1
     9     1    17    1
    10    17    18    1
    11    18    19    1
    12    19    20   ar
    13    20    21   ar
    14    21    22   ar
    15    22    23    1
    16    22    24   ar
    17    24    25   ar
    18     1    26    1
    19    26    27    1
    20    27    28   ar
    21    28    29   ar
    22    29    30   ar
    23    30    31   ar
    24    31    33    1
    25    33    34    1
    26    33    35    1
    27    33    36    1
    28    31    32   ar
    29     5     6    1
    30     6     7    1
    31    11    12   ar
    32    12    13   ar
    33    13     9   ar
    34     7     2    1
    35    25    19   ar
    36    32    27   ar
    37     8    14    1
    38     8    15    1
    39    13    16    1
@<TRIPOS>MOLECULE
*****
 36 39 0 0 0
SMALL
GASTEIGER

@<TRIPOS>ATOM
      1 N         138.1672  139.7924  163.4013 N.3     1  UNL1       -0.2698
      2 N         140.1265  139.8398  167.4521 N.pl3   1  UNL1       -0.2769
      3 C         138.7476  139.2715  167.2926 C.3     1  UNL1        0.0950
      4 C         138.0945  139.2557  165.9423 C.3     1  UNL1        0.0375
      5 C         138.8203  139.8082  164.7516 C.3     1  UNL1        0.0612
      6 C         140.1993  140.3765  164.9111 C.3     1  UNL1        0.0375
      7 C         140.8524  140.3923  166.2613 C.3     1  UNL1        0.0950
      8 N         143.7776  139.7561  171.2657 N.pl3   1  UNL1       -0.3278
      9 C         142.4579  139.8171  170.5553 C.ar    1  UNL1        0.2099
     10 N         142.2527  139.7633  169.0704 N.ar    1  UNL1       -0.1804
     11 C         140.7797  139.8555  168.8024 C.ar    1  UNL1        0.2395
     12 N         140.0745  139.9663  170.1216 N.ar    1  UNL1       -0.1349
     13 N         141.1117  139.9425  171.2050 N.ar    1  UNL1       -0.2453
     14 H         144.6114  139.6732  170.7490 H       1  UNL1        0.1451
     15 H         143.8098  139.7991  172.2488 H       1  UNL1        0.1451
     16 H         140.9392  139.9993  172.1726 H       1  UNL1        0.1919
     17 C         138.2251  138.5557  162.5546 C.3     1  UNL1        0.0770
     18 C         139.2705  138.4261  161.4866 C.3     1  UNL1        0.0437
     19 C         140.6595  138.9369  161.7309 C.ar    1  UNL1       -0.0207
     20 C         141.6546  138.0842  162.4609 C.ar    1  UNL1       -0.0034
     21 C         143.0436  138.5949  162.7052 C.ar    1  UNL1        0.0111
     22 C         143.4376  139.9584  162.2196 C.ar    1  UNL1        0.0577
     23 CL        144.8267  140.4691  162.4639 Cl      1  UNL1       -0.0822
     24 C         142.4426  140.8111  161.4896 C.ar    1  UNL1        0.0111
     25 C         141.0535  140.3003  161.2453 C.ar    1  UNL1       -0.0034
     26 C         137.4561  141.0135  162.8978 C.3     1  UNL1        0.0991
     27 C         138.0423  142.3737  163.1344 C.ar    1  UNL1       -0.0062
     28 C         137.7832  143.0875  164.4281 C.ar    1  UNL1       -0.0029
     29 C         138.3693  144.4477  164.6647 C.ar    1  UNL1       -0.0003
     30 C         139.2146  145.0944  163.6076 C.ar    1  UNL1        0.0038
     31 C         139.4737  144.3807  162.3140 C.ar    1  UNL1        0.0712
     32 C         138.8875  143.0204  162.0773 C.ar    1  UNL1        0.0009
     33 C         140.3190  145.0273  161.2569 C.3     1  UNL1        0.4186
     34 F         141.1643  145.6740  160.1999 F       1  UNL1       -0.1659
     35 F         140.3112  146.3097  162.0351 F       1  UNL1       -0.1659
     36 F         140.3268  143.7450  160.4787 F       1  UNL1       -0.1659
@<TRIPOS>BOND
     1     8     9    1
     2     9    10   ar
     3    10    11   ar
     4    11     2    1
     5     2     3    1
     6     3     4    1
     7     4     5    1
     8     5     1    1
     9     1    17    1
    10    17    18    1
    11    18    19    1
    12    19    20   ar
    13    20    21   ar
    14    21    22   ar
    15    22    23    1
    16    22    24   ar
    17    24    25   ar
    18     1    26    1
    19    26    27    1
    20    27    28   ar
    21    28    29   ar
    22    29    30   ar
    23    30    31   ar
    24    31    33    1
    25    33    34    1
    26    33    35    1
    27    33    36    1
    28    31    32   ar
    29     5     6    1
    30     6     7    1
    31    11    12   ar
    32    12    13   ar
    33    13     9   ar
    34     7     2    1
    35    25    19   ar
    36    32    27   ar
    37     8    14    1
    38     8    15    1
    39    13    16    1
@<TRIPOS>MOLECULE
*****
 36 39 0 0 0
SMALL
GASTEIGER

@<TRIPOS>ATOM
      1 N         138.2877  142.5971  162.2997 N.3     1  UNL1       -0.2698
      2 N         141.8387  142.2438  159.5583 N.pl3   1  UNL1       -0.2769
      3 C         140.6379  143.0351  159.1319 C.3     1  UNL1        0.0950
      4 C         139.4542  143.1528  160.0457 C.3     1  UNL1        0.0375
      5 C         139.4714  142.4794  161.3859 C.3     1  UNL1        0.0612
      6 C         140.6723  141.6881  161.8123 C.3     1  UNL1        0.0375
      7 C         141.8559  141.5704  160.8985 C.3     1  UNL1        0.0950
      8 N         145.6664  140.2237  156.5336 N.pl3   1  UNL1       -0.3278
      9 C         144.7818  141.1974  157.2542 C.ar    1  UNL1        0.2099
     10 N         143.6177  140.8477  158.1330 N.ar    1  UNL1       -0.1804
     11 C         143.0225  142.1260  158.6445 C.ar    1  UNL1        0.2395
     12 N         143.8188  143.2659  158.0818 N.ar    1  UNL1       -0.1349
     13 N         144.9061  142.6920  157.2226 N.ar    1  UNL1       -0.2453
     14 H         145.5040  139.2562  156.6169 H       1  UNL1        0.1451
     15 H         146.4093  140.5520  155.9772 H       1  UNL1        0.1451
     16 H         145.5826  143.2060  156.7252 H       1  UNL1        0.1919
     17 C         137.9676  143.9120  162.9468 C.3     1  UNL1        0.0770
     18 C         138.6260  144.2914  164.2401 C.3     1  UNL1        0.0437
     19 C         140.0937  144.0498  164.4336 C.ar    1  UNL1       -0.0207
     20 C         141.0956  144.9035  163.7143 C.ar    1  UNL1       -0.0034
     21 C         142.5633  144.6619  163.9078 C.ar    1  UNL1        0.0111
     22 C         143.0291  143.5667  164.8208 C.ar    1  UNL1        0.0577
     23 CL        144.4968  143.3251  165.0144 Cl      1  UNL1       -0.0822
     24 C         142.0273  142.7130  165.5402 C.ar    1  UNL1        0.0111
     25 C         140.5595  142.9546  165.3466 C.ar    1  UNL1       -0.0034
     26 C         137.4240  141.4001  162.5663 C.3     1  UNL1        0.0991
     27 C         137.9487  140.2669  163.3973 C.ar    1  UNL1       -0.0062
     28 C         138.3451  138.9771  162.7421 C.ar    1  UNL1       -0.0029
     29 C         138.8697  137.8439  163.5730 C.ar    1  UNL1       -0.0003
     30 C         138.9980  138.0004  165.0593 C.ar    1  UNL1        0.0038
     31 C         138.6016  139.2902  165.7146 C.ar    1  UNL1        0.0712
     32 C         138.0769  140.4234  164.8836 C.ar    1  UNL1        0.0009
     33 C         138.7299  139.4467  167.2009 C.3     1  UNL1        0.4186
     34 F         138.8582  139.6032  168.6872 F       1  UNL1       -0.1659
     35 F         137.4334  138.7164  167.3897 F       1  UNL1       -0.1659
     36 F         140.0265  140.1770  167.0121 F       1  UNL1       -0.1659
@<TRIPOS>BOND
     1     8     9    1
     2     9    10   ar
     3    10    11   ar
     4    11     2    1
     5     2     3    1
     6     3     4    1
     7     4     5    1
     8     5     1    1
     9     1    17    1
    10    17    18    1
    11    18    19    1
    12    19    20   ar
    13    20    21   ar
    14    21    22   ar
    15    22    23    1
    16    22    24   ar
    17    24    25   ar
    18     1    26    1
    19    26    27    1
    20    27    28   ar
    21    28    29   ar
    22    29    30   ar
    23    30    31   ar
    24    31    33    1
    25    33    34    1
    26    33    35    1
    27    33    36    1
    28    31    32   ar
    29     5     6    1
    30     6     7    1
    31    11    12   ar
    32    12    13   ar
    33    13     9   ar
    34     7     2    1
    35    25    19   ar
    36    32    27   ar
    37     8    14    1
    38     8    15    1
    39    13    16    1
@<TRIPOS>MOLECULE
*****
 36 39 0 0 0
SMALL
GASTEIGER

@<TRIPOS>ATOM
      1 N         139.5292  143.1922  163.9951 N.3     1  UNL1       -0.2698
      2 N         140.6818  144.7821  159.9461 N.pl3   1  UNL1       -0.2769
      3 C         140.8035  143.3159  160.2386 C.3     1  UNL1        0.0950
      4 C         140.4193  142.7860  161.5882 C.3     1  UNL1        0.0375
      5 C         139.9134  143.7222  162.6454 C.3     1  UNL1        0.0612
      6 C         139.7917  145.1883  162.3529 C.3     1  UNL1        0.0375
      7 C         140.1758  145.7183  161.0033 C.3     1  UNL1        0.0950
      8 N         140.3950  146.8231  155.0847 N.pl3   1  UNL1       -0.3278
      9 C         140.9341  146.2502  156.3619 C.ar    1  UNL1        0.2099
     10 N         140.1220  145.8219  157.5481 N.ar    1  UNL1       -0.1804
     11 C         141.0659  145.3121  158.5965 C.ar    1  UNL1        0.2395
     12 N         142.4614  145.4253  158.0582 N.ar    1  UNL1       -0.1349
     13 N         142.3800  146.0051  156.6772 N.ar    1  UNL1       -0.2453
     14 H         139.4249  146.9468  154.9716 H       1  UNL1        0.1451
     15 H         141.0113  147.0754  154.3597 H       1  UNL1        0.1451
     16 H         143.1418  146.1919  156.0822 H       1  UNL1        0.1919
     17 C         140.2251  143.6961  165.2246 C.3     1  UNL1        0.0770
     18 C         141.2883  142.8643  165.8788 C.3     1  UNL1        0.0437
     19 C         140.9824  142.1132  167.1406 C.ar    1  UNL1       -0.0207
     20 C         140.4080  142.8357  168.3230 C.ar    1  UNL1       -0.0034
     21 C         140.1021  142.0847  169.5848 C.ar    1  UNL1        0.0111
     22 C         140.3707  140.6110  169.6644 C.ar    1  UNL1        0.0577
     23 CL        140.0648  139.8599  170.9262 Cl      1  UNL1       -0.0822
     24 C         140.9450  139.8885  168.4820 C.ar    1  UNL1        0.0111
     25 C         141.2509  140.6396  167.2201 C.ar    1  UNL1       -0.0034
     26 C         138.4491  142.1583  164.1152 C.3     1  UNL1        0.0991
     27 C         138.8031  140.7389  164.4464 C.ar    1  UNL1       -0.0062
     28 C         139.9162  140.0524  163.7116 C.ar    1  UNL1       -0.0029
     29 C         140.2702  138.6329  164.0428 C.ar    1  UNL1       -0.0003
     30 C         139.5111  137.8998  165.1089 C.ar    1  UNL1        0.0038
     31 C         138.3981  138.5862  165.8437 C.ar    1  UNL1        0.0712
     32 C         138.0441  140.0058  165.5125 C.ar    1  UNL1        0.0009
     33 C         137.6391  137.8532  166.9097 C.3     1  UNL1        0.4186
     34 F         136.8800  137.1201  167.9758 F       1  UNL1       -0.1659
     35 F         137.6843  136.6029  166.0822 F       1  UNL1       -0.1659
     36 F         137.5939  139.1034  167.7373 F       1  UNL1       -0.1659
@<TRIPOS>BOND
     1     8     9    1
     2     9    10   ar
     3    10    11   ar
     4    11     2    1
     5     2     3    1
     6     3     4    1
     7     4     5    1
     8     5     1    1
     9     1    17    1
    10    17    18    1
    11    18    19    1
    12    19    20   ar
    13    20    21   ar
    14    21    22   ar
    15    22    23    1
    16    22    24   ar
    17    24    25   ar
    18     1    26    1
    19    26    27    1
    20    27    28   ar
    21    28    29   ar
    22    29    30   ar
    23    30    31   ar
    24    31    33    1
    25    33    34    1
    26    33    35    1
    27    33    36    1
    28    31    32   ar
    29     5     6    1
    30     6     7    1
    31    11    12   ar
    32    12    13   ar
    33    13     9   ar
    34     7     2    1
    35    25    19   ar
    36    32    27   ar
    37     8    14    1
    38     8    15    1
    39    13    16    1
