@<TRIPOS>MOLECULE
*****
 39 42 0 0 0
SMALL
GASTEIGER

@<TRIPOS>ATOM
      1 C         141.4581  141.5799  164.8567 C.3     1  UNL1        0.0808
      2 C         143.2453  142.9347  163.5449 C.ar    1  UNL1        0.2211
      3 N         144.0249  143.1795  162.2870 N.ar    1  UNL1       -0.2119
      4 C         143.7970  142.3143  161.0830 C.ar    1  UNL1        0.0844
      5 C         144.5766  142.5591  159.8251 C.ar    1  UNL1        0.0197
      6 C         144.3487  141.6940  158.6211 C.ar    1  UNL1        0.0082
      7 C         143.3412  140.5840  158.6750 C.ar    1  UNL1        0.0347
      8 BR        143.1133  139.7189  157.4710 Br      1  UNL1       -0.0490
      9 C         142.5616  140.3392  159.9329 C.ar    1  UNL1        0.0082
     10 C         142.7895  141.2044  161.1369 C.ar    1  UNL1        0.0181
     11 C         142.0099  140.9596  162.3948 C.ar    1  UNL1        0.0023
     12 C         142.2378  141.8247  163.5987 C.ar    1  UNL1        0.0375
     13 C         144.6785  143.5787  165.6140 C.3     1  UNL1        0.2542
     14 O         143.4732  143.7998  164.7488 O.3     1  UNL1       -0.4563
     15 C         142.0573  140.7640  165.9636 C.ar    1  UNL1        0.0245
     16 C         142.5314  139.3667  165.6933 C.ar    1  UNL1        0.0200
     17 C         143.1306  138.5507  166.8002 C.ar    1  UNL1        0.1019
     18 N         143.2556  139.1321  168.1774 N.ar    1  UNL1       -0.2076
     19 C         142.7815  140.5292  168.4476 C.ar    1  UNL1        0.2598
     20 C         142.1824  141.3452  167.3407 C.ar    1  UNL1        0.1879
     21 O         142.9066  141.1105  169.8247 O.3     1  UNL1       -0.4541
     22 C         142.0067  140.6321  170.9253 C.3     1  UNL1        0.2543
     23 O         141.7083  142.7424  167.6109 O.3     1  UNL1       -0.4670
     24 C         140.5071  142.9720  168.4796 C.3     1  UNL1        0.2527
     25 C         140.0794  142.1510  165.0076 C.3     1  UNL1        0.1159
     26 O         140.6447  143.5379  164.9238 O.3     1  UNL1       -0.3820
     27 H         140.2124  144.0201  164.2016 H       1  UNL1        0.2107
     28 C         139.5141  140.7642  165.0915 C.ar    1  UNL1        0.0021
     29 C         139.0410  140.2255  166.4090 C.ar    1  UNL1       -0.0020
     30 C         138.4757  138.8385  166.4928 C.ar    1  UNL1       -0.0006
     31 C         138.3835  137.9904  165.2591 C.ar    1  UNL1       -0.0043
     32 C         138.8566  138.5291  163.9415 C.ar    1  UNL1       -0.0221
     33 C         138.7643  137.6809  162.7078 C.3     1  UNL1        0.0310
     34 C         139.4218  139.9160  163.8577 C.ar    1  UNL1       -0.0063
     35 C         138.7006  142.7221  165.1586 C.3     1  UNL1        0.0491
     36 C         138.3321  143.9902  164.4472 C.3     1  UNL1        0.0750
     37 N         138.4909  144.0887  162.9589 N.3     1  UNL1       -0.2702
     38 C         139.1778  145.2776  162.3549 C.3     1  UNL1        0.0897
     39 C         137.9629  142.9982  162.0745 C.3     1  UNL1        0.0897
@<TRIPOS>BOND
     1    13    14    1
     2    14     2    1
     3     2     3   ar
     4     3     4   ar
     5     4     5   ar
     6     5     6   ar
     7     6     7   ar
     8     7     8    1
     9     7     9   ar
    10     9    10   ar
    11    10    11   ar
    12    11    12   ar
    13     1    12    1
    14     1    15    1
    15    15    16   ar
    16    16    17   ar
    17    17    18   ar
    18    18    19   ar
    19    19    21    1
    20    21    22    1
    21    19    20   ar
    22    20    23    1
    23    23    24    1
    24     1    25    1
    25    25    26    1
    26    25    35    1
    27    35    36    1
    28    36    37    1
    29    37    38    1
    30    37    39    1
    31    25    28    1
    32    28    29   ar
    33    29    30   ar
    34    30    31   ar
    35    31    32   ar
    36    32    33    1
    37    32    34   ar
    38    12     2   ar
    39    20    15   ar
    40    34    28   ar
    41    10     4   ar
    42    26    27    1
@<TRIPOS>MOLECULE
*****
 39 42 0 0 0
SMALL
GASTEIGER

@<TRIPOS>ATOM
      1 C         141.6695  141.1736  163.2285 C.3     1  UNL1        0.0808
      2 C         143.3450  142.3265  164.8451 C.ar    1  UNL1        0.2211
      3 N         143.7954  142.6427  166.2406 N.ar    1  UNL1       -0.2119
      4 C         143.0205  142.1223  167.4148 C.ar    1  UNL1        0.0844
      5 C         143.4708  142.4385  168.8102 C.ar    1  UNL1        0.0197
      6 C         142.6959  141.9181  169.9844 C.ar    1  UNL1        0.0082
      7 C         141.4708  141.0815  169.7632 C.ar    1  UNL1        0.0347
      8 BR        140.6959  140.5610  170.9374 Br      1  UNL1       -0.0490
      9 C         141.0204  140.7652  168.3677 C.ar    1  UNL1        0.0082
     10 C         141.7953  141.2856  167.1935 C.ar    1  UNL1        0.0181
     11 C         141.3450  140.9694  165.7981 C.ar    1  UNL1        0.0023
     12 C         142.1198  141.4898  164.6239 C.ar    1  UNL1        0.0375
     13 C         145.4097  142.1921  163.2737 C.3     1  UNL1        0.2542
     14 O         144.1199  142.8469  163.6709 O.3     1  UNL1       -0.4563
     15 C         142.5034  140.2842  162.3547 C.ar    1  UNL1        0.0245
     16 C         142.9718  138.9546  162.8676 C.ar    1  UNL1        0.0200
     17 C         143.8058  138.0652  161.9938 C.ar    1  UNL1        0.1019
     18 N         144.1714  138.5054  160.6072 N.ar    1  UNL1       -0.2076
     19 C         143.7030  139.8349  160.0944 C.ar    1  UNL1        0.2598
     20 C         142.8690  140.7243  160.9681 C.ar    1  UNL1        0.1879
     21 O         144.0686  140.2750  158.7078 O.3     1  UNL1       -0.4541
     22 C         143.1199  140.0367  157.5707 C.3     1  UNL1        0.2543
     23 O         142.4007  142.0538  160.4554 O.3     1  UNL1       -0.4670
     24 C         143.3876  143.1607  160.2297 C.3     1  UNL1        0.2527
     25 C         140.3852  141.7467  162.7069 C.3     1  UNL1        0.1159
     26 O         140.9906  143.1190  162.7242 O.3     1  UNL1       -0.3820
     27 H         140.9312  143.5098  161.8383 H       1  UNL1        0.2107
     28 C         139.7798  140.3744  162.6896 C.ar    1  UNL1        0.0021
     29 C         139.4333  139.7240  161.3831 C.ar    1  UNL1       -0.0020
     30 C         138.8279  138.3516  161.3659 C.ar    1  UNL1       -0.0006
     31 C         138.5691  137.6298  162.6550 C.ar    1  UNL1       -0.0043
     32 C         138.9156  138.2803  163.9615 C.ar    1  UNL1       -0.0221
     33 C         138.6567  137.5584  165.2507 C.3     1  UNL1        0.0310
     34 C         139.5209  139.6526  163.9788 C.ar    1  UNL1       -0.0063
     35 C         139.1009  142.3198  162.1852 C.3     1  UNL1        0.0491
     36 C         139.0607  143.7308  161.6778 C.3     1  UNL1        0.0750
     37 N         139.5341  144.0421  160.2888 N.3     1  UNL1       -0.2702
     38 C         139.2519  143.0856  159.1683 C.3     1  UNL1        0.0897
     39 C         140.2897  145.3098  160.0204 C.3     1  UNL1        0.0897
@<TRIPOS>BOND
     1    13    14    1
     2    14     2    1
     3     2     3   ar
     4     3     4   ar
     5     4     5   ar
     6     5     6   ar
     7     6     7   ar
     8     7     8    1
     9     7     9   ar
    10     9    10   ar
    11    10    11   ar
    12    11    12   ar
    13     1    12    1
    14     1    15    1
    15    15    16   ar
    16    16    17   ar
    17    17    18   ar
    18    18    19   ar
    19    19    21    1
    20    21    22    1
    21    19    20   ar
    22    20    23    1
    23    23    24    1
    24     1    25    1
    25    25    26    1
    26    25    35    1
    27    35    36    1
    28    36    37    1
    29    37    38    1
    30    37    39    1
    31    25    28    1
    32    28    29   ar
    33    29    30   ar
    34    30    31   ar
    35    31    32   ar
    36    32    33    1
    37    32    34   ar
    38    12     2   ar
    39    20    15   ar
    40    34    28   ar
    41    10     4   ar
    42    26    27    1
@<TRIPOS>MOLECULE
*****
 39 42 0 0 0
SMALL
GASTEIGER

@<TRIPOS>ATOM
      1 C         140.3714  141.1573  163.2015 C.3     1  UNL1        0.0808
      2 C         139.8693  142.9365  165.0270 C.ar    1  UNL1        0.2211
      3 N         139.9934  143.4157  166.4430 N.ar    1  UNL1       -0.2119
      4 C         140.7439  142.5948  167.4495 C.ar    1  UNL1        0.0844
      5 C         140.8680  143.0739  168.8655 C.ar    1  UNL1        0.0197
      6 C         141.6185  142.2530  169.8719 C.ar    1  UNL1        0.0082
      7 C         142.2447  140.9530  169.4625 C.ar    1  UNL1        0.0347
      8 BR        142.9951  140.1321  170.4690 Br      1  UNL1       -0.0490
      9 C         142.1205  140.4738  168.0465 C.ar    1  UNL1        0.0082
     10 C         141.3701  141.2947  167.0400 C.ar    1  UNL1        0.0181
     11 C         141.2459  140.8156  165.6240 C.ar    1  UNL1        0.0023
     12 C         140.4955  141.6365  164.6175 C.ar    1  UNL1        0.0375
     13 C         137.6564  144.0290  164.2147 C.3     1  UNL1        0.2542
     14 O         139.1189  143.7574  164.0205 O.3     1  UNL1       -0.4563
     15 C         141.5860  141.0874  162.3242 C.ar    1  UNL1        0.0245
     16 C         142.3856  139.8204  162.2497 C.ar    1  UNL1        0.0200
     17 C         143.6003  139.7506  161.3723 C.ar    1  UNL1        0.1019
     18 N         144.0153  140.9478  160.5695 N.ar    1  UNL1       -0.2076
     19 C         143.2158  142.2147  160.6440 C.ar    1  UNL1        0.2598
     20 C         142.0011  142.2845  161.5213 C.ar    1  UNL1        0.1879
     21 O         143.6309  143.4118  159.8411 O.3     1  UNL1       -0.4541
     22 C         143.2665  143.5041  158.3890 C.3     1  UNL1        0.2543
     23 O         141.2016  143.5514  161.5958 O.3     1  UNL1       -0.4670
     24 C         141.7639  144.7532  162.2955 C.3     1  UNL1        0.2527
     25 C         139.0326  140.7479  162.6629 C.3     1  UNL1        0.1159
     26 O         139.0542  141.9157  161.7218 O.3     1  UNL1       -0.3820
     27 H         138.9480  141.5990  160.8111 H       1  UNL1        0.2107
     28 C         139.0111  139.5801  163.6040 C.ar    1  UNL1        0.0021
     29 C         139.7253  138.3117  163.2419 C.ar    1  UNL1       -0.0020
     30 C         139.7037  137.1439  164.1831 C.ar    1  UNL1       -0.0006
     31 C         138.9680  137.2445  165.4864 C.ar    1  UNL1       -0.0043
     32 C         138.2538  138.5128  165.8485 C.ar    1  UNL1       -0.0221
     33 C         137.5180  138.6134  167.1518 C.3     1  UNL1        0.0310
     34 C         138.2753  139.6806  164.9074 C.ar    1  UNL1       -0.0063
     35 C         137.6939  140.3385  162.1243 C.3     1  UNL1        0.0491
     36 C         137.6103  139.4481  160.9201 C.3     1  UNL1        0.0750
     37 N         138.4709  139.7232  159.7227 N.3     1  UNL1       -0.2702
     38 C         138.0037  140.6817  158.6677 C.3     1  UNL1        0.0897
     39 C         139.7985  139.0399  159.5803 C.3     1  UNL1        0.0897
@<TRIPOS>BOND
     1    13    14    1
     2    14     2    1
     3     2     3   ar
     4     3     4   ar
     5     4     5   ar
     6     5     6   ar
     7     6     7   ar
     8     7     8    1
     9     7     9   ar
    10     9    10   ar
    11    10    11   ar
    12    11    12   ar
    13     1    12    1
    14     1    15    1
    15    15    16   ar
    16    16    17   ar
    17    17    18   ar
    18    18    19   ar
    19    19    21    1
    20    21    22    1
    21    19    20   ar
    22    20    23    1
    23    23    24    1
    24     1    25    1
    25    25    26    1
    26    25    35    1
    27    35    36    1
    28    36    37    1
    29    37    38    1
    30    37    39    1
    31    25    28    1
    32    28    29   ar
    33    29    30   ar
    34    30    31   ar
    35    31    32   ar
    36    32    33    1
    37    32    34   ar
    38    12     2   ar
    39    20    15   ar
    40    34    28   ar
    41    10     4   ar
    42    26    27    1
@<TRIPOS>MOLECULE
*****
 39 42 0 0 0
SMALL
GASTEIGER

@<TRIPOS>ATOM
      1 C         140.9382  141.7102  165.6092 C.3     1  UNL1        0.0808
      2 C         139.9618  143.8974  164.6028 C.ar    1  UNL1        0.2211
      3 N         139.8369  144.8577  163.4572 N.ar    1  UNL1       -0.2119
      4 C         140.5636  144.5910  162.1724 C.ar    1  UNL1        0.0844
      5 C         140.4388  145.5512  161.0268 C.ar    1  UNL1        0.0197
      6 C         141.1654  145.2844  159.7420 C.ar    1  UNL1        0.0082
      7 C         142.0169  144.0575  159.6027 C.ar    1  UNL1        0.0347
      8 BR        142.7436  143.7907  158.3179 Br      1  UNL1       -0.0490
      9 C         142.1418  143.0972  160.7483 C.ar    1  UNL1        0.0082
     10 C         141.4151  143.3639  162.0332 C.ar    1  UNL1        0.0181
     11 C         141.5400  142.4037  163.1787 C.ar    1  UNL1        0.0023
     12 C         140.8133  142.6705  164.4636 C.ar    1  UNL1        0.0375
     13 C         138.1243  145.1715  165.9258 C.3     1  UNL1        0.2542
     14 O         139.2351  144.1642  165.8877 O.3     1  UNL1       -0.4563
     15 C         140.0465  140.5060  165.6790 C.ar    1  UNL1        0.0245
     16 C         139.2957  140.2009  166.9412 C.ar    1  UNL1        0.0200
     17 C         138.4040  138.9967  167.0111 C.ar    1  UNL1        0.1019
     18 N         138.2631  138.0976  165.8186 N.ar    1  UNL1       -0.2076
     19 C         139.0139  138.4028  164.5564 C.ar    1  UNL1        0.2598
     20 C         139.9056  139.6069  164.4866 C.ar    1  UNL1        0.1879
     21 O         138.8730  137.5037  163.3640 O.3     1  UNL1       -0.4541
     22 C         138.1106  137.9697  162.1592 C.3     1  UNL1        0.2543
     23 O         140.6564  139.9121  163.2244 O.3     1  UNL1       -0.4670
     24 C         141.6719  138.9395  162.7020 C.3     1  UNL1        0.2527
     25 C         141.9547  141.9541  166.6849 C.3     1  UNL1        0.1159
     26 O         140.9540  142.7732  167.4448 O.3     1  UNL1       -0.3820
     27 H         140.8475  142.4076  168.3369 H       1  UNL1        0.2107
     28 C         142.9554  141.1349  165.9250 C.ar    1  UNL1        0.0021
     29 C         143.0030  139.6472  166.1109 C.ar    1  UNL1       -0.0020
     30 C         144.0038  138.8281  165.3510 C.ar    1  UNL1       -0.0006
     31 C         144.9569  139.4966  164.4051 C.ar    1  UNL1       -0.0043
     32 C         144.9093  140.9842  164.2192 C.ar    1  UNL1       -0.0221
     33 C         145.8624  141.6527  163.2732 C.3     1  UNL1        0.0310
     34 C         143.9085  141.8034  164.9790 C.ar    1  UNL1       -0.0063
     35 C         142.9712  142.1980  167.7606 C.3     1  UNL1        0.0491
     36 C         142.5475  142.2320  169.1991 C.3     1  UNL1        0.0750
     37 N         141.8387  141.0545  169.8002 N.3     1  UNL1       -0.2702
     38 C         142.4306  139.6815  169.6801 C.3     1  UNL1        0.0897
     39 C         140.5381  141.2500  170.5214 C.3     1  UNL1        0.0897
@<TRIPOS>BOND
     1    13    14    1
     2    14     2    1
     3     2     3   ar
     4     3     4   ar
     5     4     5   ar
     6     5     6   ar
     7     6     7   ar
     8     7     8    1
     9     7     9   ar
    10     9    10   ar
    11    10    11   ar
    12    11    12   ar
    13     1    12    1
    14     1    15    1
    15    15    16   ar
    16    16    17   ar
    17    17    18   ar
    18    18    19   ar
    19    19    21    1
    20    21    22    1
    21    19    20   ar
    22    20    23    1
    23    23    24    1
    24     1    25    1
    25    25    26    1
    26    25    35    1
    27    35    36    1
    28    36    37    1
    29    37    38    1
    30    37    39    1
    31    25    28    1
    32    28    29   ar
    33    29    30   ar
    34    30    31   ar
    35    31    32   ar
    36    32    33    1
    37    32    34   ar
    38    12     2   ar
    39    20    15   ar
    40    34    28   ar
    41    10     4   ar
    42    26    27    1
@<TRIPOS>MOLECULE
*****
 39 42 0 0 0
SMALL
GASTEIGER

@<TRIPOS>ATOM
      1 C         142.0868  140.7906  163.0457 C.3     1  UNL1        0.0808
      2 C         143.3905  142.2222  164.7780 C.ar    1  UNL1        0.2211
      3 N         143.6496  142.6231  166.2000 N.ar    1  UNL1       -0.2119
      4 C         142.8641  141.9931  167.3118 C.ar    1  UNL1        0.0844
      5 C         143.1232  142.3939  168.7339 C.ar    1  UNL1        0.0197
      6 C         142.3377  141.7640  169.8457 C.ar    1  UNL1        0.0082
      7 C         141.2931  140.7331  169.5355 C.ar    1  UNL1        0.0347
      8 BR        140.5076  140.1031  170.6473 Br      1  UNL1       -0.0490
      9 C         141.0340  140.3323  168.1134 C.ar    1  UNL1        0.0082
     10 C         141.8195  140.9623  167.0016 C.ar    1  UNL1        0.0181
     11 C         141.5604  140.5614  165.5796 C.ar    1  UNL1        0.0023
     12 C         142.3459  141.1914  164.4677 C.ar    1  UNL1        0.0375
     13 C         143.9492  144.2916  163.3097 C.3     1  UNL1        0.2542
     14 O         144.1760  142.8522  163.6662 O.3     1  UNL1       -0.4563
     15 C         141.3024  141.6955  162.1424 C.ar    1  UNL1        0.0245
     16 C         141.8821  142.1300  160.8289 C.ar    1  UNL1        0.0200
     17 C         141.0977  143.0349  159.9256 C.ar    1  UNL1        0.1019
     18 N         139.7336  143.5052  160.3359 N.ar    1  UNL1       -0.2076
     19 C         139.1540  143.0707  161.6493 C.ar    1  UNL1        0.2598
     20 C         139.9384  142.1658  162.5526 C.ar    1  UNL1        0.1879
     21 O         137.7900  143.5410  162.0595 O.3     1  UNL1       -0.4541
     22 C         137.6439  144.5476  163.1619 C.3     1  UNL1        0.2543
     23 O         139.3588  141.7312  163.8660 O.3     1  UNL1       -0.4670
     24 C         138.0210  141.0540  163.9082 C.3     1  UNL1        0.2527
     25 C         142.6121  139.4848  162.5269 C.3     1  UNL1        0.1159
     26 O         143.9922  140.0681  162.4563 O.3     1  UNL1       -0.3820
     27 H         144.6011  139.5221  162.9778 H       1  UNL1        0.2107
     28 C         141.2320  138.9016  162.5975 C.ar    1  UNL1        0.0021
     29 C         140.3968  138.7986  161.3558 C.ar    1  UNL1       -0.0020
     30 C         139.0166  138.2153  161.4265 C.ar    1  UNL1       -0.0006
     31 C         138.4717  137.7350  162.7388 C.ar    1  UNL1       -0.0043
     32 C         139.3069  137.8379  163.9806 C.ar    1  UNL1       -0.0221
     33 C         138.7619  137.3575  165.2930 C.3     1  UNL1        0.0310
     34 C         140.6870  138.4212  163.9099 C.ar    1  UNL1       -0.0063
     35 C         143.1374  138.1791  162.0082 C.3     1  UNL1        0.0491
     36 C         144.0355  138.1561  160.8070 C.3     1  UNL1        0.0750
     37 N         143.5243  138.6311  159.4791 N.3     1  UNL1       -0.2702
     38 C         142.6691  137.7298  158.6387 C.3     1  UNL1        0.0897
     39 C         143.8684  140.0073  158.9917 C.3     1  UNL1        0.0897
@<TRIPOS>BOND
     1    13    14    1
     2    14     2    1
     3     2     3   ar
     4     3     4   ar
     5     4     5   ar
     6     5     6   ar
     7     6     7   ar
     8     7     8    1
     9     7     9   ar
    10     9    10   ar
    11    10    11   ar
    12    11    12   ar
    13     1    12    1
    14     1    15    1
    15    15    16   ar
    16    16    17   ar
    17    17    18   ar
    18    18    19   ar
    19    19    21    1
    20    21    22    1
    21    19    20   ar
    22    20    23    1
    23    23    24    1
    24     1    25    1
    25    25    26    1
    26    25    35    1
    27    35    36    1
    28    36    37    1
    29    37    38    1
    30    37    39    1
    31    25    28    1
    32    28    29   ar
    33    29    30   ar
    34    30    31   ar
    35    31    32   ar
    36    32    33    1
    37    32    34   ar
    38    12     2   ar
    39    20    15   ar
    40    34    28   ar
    41    10     4   ar
    42    26    27    1
@<TRIPOS>MOLECULE
*****
 39 42 0 0 0
SMALL
GASTEIGER

@<TRIPOS>ATOM
      1 C         140.8091  140.9280  163.0265 C.3     1  UNL1        0.0808
      2 C         139.1097  139.6867  164.5499 C.ar    1  UNL1        0.2211
      3 N         138.5711  139.3821  165.9165 N.ar    1  UNL1       -0.2119
      4 C         139.1935  140.0144  167.1259 C.ar    1  UNL1        0.0844
      5 C         138.6550  139.7098  168.4924 C.ar    1  UNL1        0.0197
      6 C         139.2775  140.3421  169.7019 C.ar    1  UNL1        0.0082
      7 C         140.4383  141.2789  169.5449 C.ar    1  UNL1        0.0347
      8 BR        141.0607  141.9112  170.7544 Br      1  UNL1       -0.0490
      9 C         140.9769  141.5835  168.1784 C.ar    1  UNL1        0.0082
     10 C         140.3545  140.9512  166.9689 C.ar    1  UNL1        0.0181
     11 C         140.8930  141.2557  165.6024 C.ar    1  UNL1        0.0023
     12 C         140.2706  140.6235  164.3930 C.ar    1  UNL1        0.0375
     13 C         138.7838  137.6224  163.0063 C.3     1  UNL1        0.2542
     14 O         138.4873  139.0544  163.3405 O.3     1  UNL1       -0.4563
     15 C         141.6426  139.9108  162.3049 C.ar    1  UNL1        0.0245
     16 C         142.8766  139.3564  162.9529 C.ar    1  UNL1        0.0200
     17 C         143.7101  138.3391  162.2313 C.ar    1  UNL1        0.1019
     18 N         143.3094  137.8763  160.8619 N.ar    1  UNL1       -0.2076
     19 C         142.0754  138.4307  160.2140 C.ar    1  UNL1        0.2598
     20 C         141.2420  139.4480  160.9355 C.ar    1  UNL1        0.1879
     21 O         141.6748  137.9679  158.8446 O.3     1  UNL1       -0.4541
     22 C         142.7260  137.5931  157.8423 C.3     1  UNL1        0.2543
     23 O         140.0080  140.0024  160.2877 O.3     1  UNL1       -0.4670
     24 C         140.1256  140.8713  159.0706 C.3     1  UNL1        0.2527
     25 C         140.5142  142.2498  162.3815 C.3     1  UNL1        0.1159
     26 O         139.0681  141.8694  162.2632 O.3     1  UNL1       -0.3820
     27 H         138.5207  142.5386  162.7030 H       1  UNL1        0.2107
     28 C         141.9603  142.6302  162.4999 C.ar    1  UNL1        0.0021
     29 C         142.8212  142.6969  161.2734 C.ar    1  UNL1       -0.0020
     30 C         144.2673  143.0773  161.3918 C.ar    1  UNL1       -0.0006
     31 C         144.8526  143.3910  162.7368 C.ar    1  UNL1       -0.0043
     32 C         143.9917  143.3243  163.9634 C.ar    1  UNL1       -0.0221
     33 C         144.5771  143.6381  165.3084 C.3     1  UNL1        0.0310
     34 C         142.5456  142.9439  163.8450 C.ar    1  UNL1       -0.0063
     35 C         140.2193  143.5715  161.7366 C.3     1  UNL1        0.0491
     36 C         139.8047  144.7413  162.5792 C.3     1  UNL1        0.0750
     37 N         138.8606  144.5412  163.7276 N.3     1  UNL1       -0.2702
     38 C         137.3986  144.3282  163.4682 C.3     1  UNL1        0.0897
     39 C         139.3785  144.5541  165.1352 C.3     1  UNL1        0.0897
@<TRIPOS>BOND
     1    13    14    1
     2    14     2    1
     3     2     3   ar
     4     3     4   ar
     5     4     5   ar
     6     5     6   ar
     7     6     7   ar
     8     7     8    1
     9     7     9   ar
    10     9    10   ar
    11    10    11   ar
    12    11    12   ar
    13     1    12    1
    14     1    15    1
    15    15    16   ar
    16    16    17   ar
    17    17    18   ar
    18    18    19   ar
    19    19    21    1
    20    21    22    1
    21    19    20   ar
    22    20    23    1
    23    23    24    1
    24     1    25    1
    25    25    26    1
    26    25    35    1
    27    35    36    1
    28    36    37    1
    29    37    38    1
    30    37    39    1
    31    25    28    1
    32    28    29   ar
    33    29    30   ar
    34    30    31   ar
    35    31    32   ar
    36    32    33    1
    37    32    34   ar
    38    12     2   ar
    39    20    15   ar
    40    34    28   ar
    41    10     4   ar
    42    26    27    1
@<TRIPOS>MOLECULE
*****
 39 42 0 0 0
SMALL
GASTEIGER

@<TRIPOS>ATOM
      1 C         141.6445  141.1143  163.1700 C.3     1  UNL1        0.0808
      2 C         143.1702  142.4324  164.8087 C.ar    1  UNL1        0.2211
      3 N         143.5954  142.7592  166.2096 N.ar    1  UNL1       -0.2119
      4 C         142.9203  142.0947  167.3727 C.ar    1  UNL1        0.0844
      5 C         143.3455  142.4215  168.7735 C.ar    1  UNL1        0.0197
      6 C         142.6703  141.7571  169.9365 C.ar    1  UNL1        0.0082
      7 C         141.5699  140.7659  169.6987 C.ar    1  UNL1        0.0347
      8 BR        140.8947  140.1014  170.8618 Br      1  UNL1       -0.0490
      9 C         141.1446  140.4390  168.2978 C.ar    1  UNL1        0.0082
     10 C         141.8198  141.1035  167.1348 C.ar    1  UNL1        0.0181
     11 C         141.3946  140.7767  165.7340 C.ar    1  UNL1        0.0023
     12 C         142.0698  141.4412  164.5709 C.ar    1  UNL1        0.0375
     13 C         143.7929  144.5889  163.5004 C.3     1  UNL1        0.2542
     14 O         143.8454  143.0968  163.6457 O.3     1  UNL1       -0.4563
     15 C         140.5804  141.9316  162.4994 C.ar    1  UNL1        0.0245
     16 C         139.2835  142.1982  163.2045 C.ar    1  UNL1        0.0200
     17 C         138.2194  143.0154  162.5338 C.ar    1  UNL1        0.1019
     18 N         138.4522  143.5660  161.1580 N.ar    1  UNL1       -0.2076
     19 C         139.7490  143.2994  160.4530 C.ar    1  UNL1        0.2598
     20 C         140.8131  142.4822  161.1236 C.ar    1  UNL1        0.1879
     21 O         139.9818  143.8500  159.0772 O.3     1  UNL1       -0.4541
     22 C         139.5782  143.0530  157.8723 C.3     1  UNL1        0.2543
     23 O         142.1100  142.2155  160.4186 O.3     1  UNL1       -0.4670
     24 C         143.0476  143.3475  160.1195 C.3     1  UNL1        0.2527
     25 C         142.2833  139.9703  162.4399 C.3     1  UNL1        0.1159
     26 O         143.5670  140.7416  162.3546 O.3     1  UNL1       -0.3820
     27 H         144.2834  140.2220  162.7516 H       1  UNL1        0.2107
     28 C         140.9997  139.1991  162.5253 C.ar    1  UNL1        0.0021
     29 C         140.2012  138.9321  161.2838 C.ar    1  UNL1       -0.0020
     30 C         138.9174  138.1608  161.3692 C.ar    1  UNL1       -0.0006
     31 C         138.4323  137.6565  162.6960 C.ar    1  UNL1       -0.0043
     32 C         139.2308  137.9234  163.9374 C.ar    1  UNL1       -0.0221
     33 C         138.7456  137.4191  165.2641 C.3     1  UNL1        0.0310
     34 C         140.5145  138.6947  163.8520 C.ar    1  UNL1       -0.0063
     35 C         142.9222  138.8263  161.7098 C.3     1  UNL1        0.0491
     36 C         143.9125  139.0943  160.6156 C.3     1  UNL1        0.0750
     37 N         143.4807  139.0286  159.1805 N.3     1  UNL1       -0.2702
     38 C         143.8204  140.1491  158.2430 C.3     1  UNL1        0.0897
     39 C         142.7091  137.8423  158.6831 C.3     1  UNL1        0.0897
@<TRIPOS>BOND
     1    13    14    1
     2    14     2    1
     3     2     3   ar
     4     3     4   ar
     5     4     5   ar
     6     5     6   ar
     7     6     7   ar
     8     7     8    1
     9     7     9   ar
    10     9    10   ar
    11    10    11   ar
    12    11    12   ar
    13     1    12    1
    14     1    15    1
    15    15    16   ar
    16    16    17   ar
    17    17    18   ar
    18    18    19   ar
    19    19    21    1
    20    21    22    1
    21    19    20   ar
    22    20    23    1
    23    23    24    1
    24     1    25    1
    25    25    26    1
    26    25    35    1
    27    35    36    1
    28    36    37    1
    29    37    38    1
    30    37    39    1
    31    25    28    1
    32    28    29   ar
    33    29    30   ar
    34    30    31   ar
    35    31    32   ar
    36    32    33    1
    37    32    34   ar
    38    12     2   ar
    39    20    15   ar
    40    34    28   ar
    41    10     4   ar
    42    26    27    1
@<TRIPOS>MOLECULE
*****
 39 42 0 0 0
SMALL
GASTEIGER

@<TRIPOS>ATOM
      1 C         140.7030  141.4056  163.3308 C.3     1  UNL1        0.0808
      2 C         140.2426  142.7797  165.4873 C.ar    1  UNL1        0.2211
      3 N         140.3285  142.9257  166.9777 N.ar    1  UNL1       -0.2119
      4 C         140.9606  141.8437  167.8021 C.ar    1  UNL1        0.0844
      5 C         141.0465  141.9897  169.2925 C.ar    1  UNL1        0.0197
      6 C         141.6786  140.9077  170.1169 C.ar    1  UNL1        0.0082
      7 C         142.2249  139.6797  169.4510 C.ar    1  UNL1        0.0347
      8 BR        142.8570  138.5977  170.2754 Br      1  UNL1       -0.0490
      9 C         142.1390  139.5336  167.9605 C.ar    1  UNL1        0.0082
     10 C         141.5069  140.6157  167.1361 C.ar    1  UNL1        0.0181
     11 C         141.4210  140.4697  165.6457 C.ar    1  UNL1        0.0023
     12 C         140.7889  141.5517  164.8213 C.ar    1  UNL1        0.0375
     13 C         138.6607  144.8321  165.3002 C.3     1  UNL1        0.2542
     14 O         139.6105  143.8617  164.6628 O.3     1  UNL1       -0.4563
     15 C         141.2122  142.4994  162.4395 C.ar    1  UNL1        0.0245
     16 C         142.6536  142.9094  162.5039 C.ar    1  UNL1        0.0200
     17 C         143.1628  144.0032  161.6126 C.ar    1  UNL1        0.1019
     18 N         142.2304  144.6870  160.6569 N.ar    1  UNL1       -0.2076
     19 C         140.7890  144.2770  160.5926 C.ar    1  UNL1        0.2598
     20 C         140.2799  143.1832  161.4839 C.ar    1  UNL1        0.1879
     21 O         139.8567  144.9607  159.6370 O.3     1  UNL1       -0.4541
     22 C         140.3856  145.5404  158.3586 C.3     1  UNL1        0.2543
     23 O         138.8385  142.7732  161.4196 O.3     1  UNL1       -0.4670
     24 C         138.3218  142.0336  160.2211 C.3     1  UNL1        0.2527
     25 C         140.1081  140.1659  162.7318 C.3     1  UNL1        0.1159
     26 O         138.7862  140.4975  163.3582 O.3     1  UNL1       -0.3820
     27 H         138.1043  140.5425  162.6698 H       1  UNL1        0.2107
     28 C         141.4300  139.8342  162.1053 C.ar    1  UNL1        0.0021
     29 C         142.5802  139.4016  162.9655 C.ar    1  UNL1       -0.0020
     30 C         143.9021  139.0700  162.3389 C.ar    1  UNL1       -0.0006
     31 C         144.0739  139.1710  160.8522 C.ar    1  UNL1       -0.0043
     32 C         142.9237  139.6036  159.9920 C.ar    1  UNL1       -0.0221
     33 C         143.0955  139.7046  158.5053 C.3     1  UNL1        0.0310
     34 C         141.6018  139.9352  160.6185 C.ar    1  UNL1       -0.0063
     35 C         139.5132  138.9261  162.1327 C.3     1  UNL1        0.0491
     36 C         138.8416  137.9150  163.0140 C.3     1  UNL1        0.0750
     37 N         139.3929  137.6258  164.3788 N.3     1  UNL1       -0.2702
     38 C         140.7394  136.9806  164.5224 C.3     1  UNL1        0.0897
     39 C         138.5978  137.9817  165.5998 C.3     1  UNL1        0.0897
@<TRIPOS>BOND
     1    13    14    1
     2    14     2    1
     3     2     3   ar
     4     3     4   ar
     5     4     5   ar
     6     5     6   ar
     7     6     7   ar
     8     7     8    1
     9     7     9   ar
    10     9    10   ar
    11    10    11   ar
    12    11    12   ar
    13     1    12    1
    14     1    15    1
    15    15    16   ar
    16    16    17   ar
    17    17    18   ar
    18    18    19   ar
    19    19    21    1
    20    21    22    1
    21    19    20   ar
    22    20    23    1
    23    23    24    1
    24     1    25    1
    25    25    26    1
    26    25    35    1
    27    35    36    1
    28    36    37    1
    29    37    38    1
    30    37    39    1
    31    25    28    1
    32    28    29   ar
    33    29    30   ar
    34    30    31   ar
    35    31    32   ar
    36    32    33    1
    37    32    34   ar
    38    12     2   ar
    39    20    15   ar
    40    34    28   ar
    41    10     4   ar
    42    26    27    1
@<TRIPOS>MOLECULE
*****
 39 42 0 0 0
SMALL
GASTEIGER

@<TRIPOS>ATOM
      1 C         141.3204  140.9526  163.5785 C.3     1  UNL1        0.0808
      2 C         142.6753  139.5941  165.3303 C.ar    1  UNL1        0.2211
      3 N         142.9951  139.2724  166.7601 N.ar    1  UNL1       -0.2119
      4 C         142.2799  139.9875  167.8678 C.ar    1  UNL1        0.0844
      5 C         142.5998  139.6658  169.2976 C.ar    1  UNL1        0.0197
      6 C         141.8846  140.3809  170.4053 C.ar    1  UNL1        0.0082
      7 C         140.8495  141.4177  170.0833 C.ar    1  UNL1        0.0347
      8 BR        140.1343  142.1328  171.1910 Br      1  UNL1       -0.0490
      9 C         140.5296  141.7394  168.6535 C.ar    1  UNL1        0.0082
     10 C         141.2449  141.0243  167.5458 C.ar    1  UNL1        0.0181
     11 C         140.9250  141.3460  166.1160 C.ar    1  UNL1        0.0023
     12 C         141.6402  140.6309  165.0083 C.ar    1  UNL1        0.0375
     13 C         144.8500  139.1318  163.9861 C.3     1  UNL1        0.2542
     14 O         143.3905  138.8790  164.2226 O.3     1  UNL1       -0.4563
     15 C         140.4920  140.0040  162.7636 C.ar    1  UNL1        0.0245
     16 C         139.1879  139.4945  163.3018 C.ar    1  UNL1        0.0200
     17 C         138.3596  138.5459  162.4868 C.ar    1  UNL1        0.1019
     18 N         138.8354  138.1070  161.1337 N.ar    1  UNL1       -0.2076
     19 C         140.1395  138.6165  160.5955 C.ar    1  UNL1        0.2598
     20 C         140.9678  139.5651  161.4105 C.ar    1  UNL1        0.1879
     21 O         140.6152  138.1776  159.2424 O.3     1  UNL1       -0.4541
     22 C         140.1170  138.8729  158.0102 C.3     1  UNL1        0.2543
     23 O         142.2719  140.0746  160.8723 O.3     1  UNL1       -0.4670
     24 C         143.3847  139.1153  160.5701 C.3     1  UNL1        0.2527
     25 C         141.8288  142.2228  162.9637 C.3     1  UNL1        0.1159
     26 O         143.1969  141.6188  162.8473 O.3     1  UNL1       -0.3820
     27 H         143.4886  141.6548  161.9229 H       1  UNL1        0.2107
     28 C         140.4608  142.8268  163.0801 C.ar    1  UNL1        0.0021
     29 C         139.4764  142.6761  161.9583 C.ar    1  UNL1       -0.0020
     30 C         138.1083  143.2801  162.0748 C.ar    1  UNL1       -0.0006
     31 C         137.7246  144.0347  163.3130 C.ar    1  UNL1       -0.0043
     32 C         138.7089  144.1854  164.4348 C.ar    1  UNL1       -0.0221
     33 C         138.3251  144.9400  165.6731 C.3     1  UNL1        0.0310
     34 C         140.0769  143.5814  164.3184 C.ar    1  UNL1       -0.0063
     35 C         142.3373  143.4930  162.3489 C.3     1  UNL1        0.0491
     36 C         143.5322  143.4618  161.4427 C.3     1  UNL1        0.0750
     37 N         143.3598  143.1545  159.9846 N.3     1  UNL1       -0.2702
     38 C         144.4747  142.5072  159.2177 C.3     1  UNL1        0.0897
     39 C         142.0727  143.4945  159.2935 C.3     1  UNL1        0.0897
@<TRIPOS>BOND
     1    13    14    1
     2    14     2    1
     3     2     3   ar
     4     3     4   ar
     5     4     5   ar
     6     5     6   ar
     7     6     7   ar
     8     7     8    1
     9     7     9   ar
    10     9    10   ar
    11    10    11   ar
    12    11    12   ar
    13     1    12    1
    14     1    15    1
    15    15    16   ar
    16    16    17   ar
    17    17    18   ar
    18    18    19   ar
    19    19    21    1
    20    21    22    1
    21    19    20   ar
    22    20    23    1
    23    23    24    1
    24     1    25    1
    25    25    26    1
    26    25    35    1
    27    35    36    1
    28    36    37    1
    29    37    38    1
    30    37    39    1
    31    25    28    1
    32    28    29   ar
    33    29    30   ar
    34    30    31   ar
    35    31    32   ar
    36    32    33    1
    37    32    34   ar
    38    12     2   ar
    39    20    15   ar
    40    34    28   ar
    41    10     4   ar
    42    26    27    1
