@<TRIPOS>MOLECULE
*****
 29 32 0 0 0
SMALL
GASTEIGER

@<TRIPOS>ATOM
      1 C         141.7542  143.9091  161.3445 C.2     1  UNL1        0.1518
      2 N         143.1132  144.4364  161.6979 N.2     1  UNL1       -0.1775
      3 C         141.0911  142.8933  162.2270 C.ar    1  UNL1        0.0237
      4 C         141.2762  141.4296  161.9562 C.ar    1  UNL1        0.0030
      5 C         140.6131  140.4140  162.8386 C.ar    1  UNL1        0.0184
      6 C         139.7649  140.8620  163.9918 C.ar    1  UNL1        0.1056
      7 C         139.5799  142.3257  164.2626 C.ar    1  UNL1        0.0184
      8 C         140.2430  143.3413  163.3802 C.ar    1  UNL1        0.0030
      9 S         139.1018  139.8463  164.8743 S.O2    1  UNL1        0.0070
     10 O         140.0401  140.2023  165.9890 O.2     1  UNL1       -0.1687
     11 O         138.1635  139.4903  163.7595 O.2     1  UNL1       -0.1687
     12 C         138.4388  138.8306  165.7567 C.3     1  UNL1        0.1339
     13 C         137.6227  138.4999  166.9710 C.3     1  UNL1        0.0257
     14 C         138.1064  137.4020  166.0708 C.3     1  UNL1        0.0257
     15 N         143.8092  143.9481  162.9338 N.pl3   1  UNL1       -0.2327
     16 C         144.7075  142.7503  163.0248 C.3     1  UNL1        0.1110
     17 C         145.1824  142.6337  164.4428 C.3     1  UNL1        0.0250
     18 C         144.5776  143.7595  165.2283 C.3     1  UNL1        0.0250
     19 C         143.7289  144.5718  164.2956 C.3     1  UNL1        0.1110
     20 O         139.6155  144.0588  159.8771 O.2     1  UNL1       -0.2681
     21 C         141.0583  144.3974  160.1087 C.2     1  UNL1        0.2702
     22 N         141.8052  145.2242  159.1045 N.am    1  UNL1       -0.2593
     23 H         142.7522  145.4464  159.2565 H       1  UNL1        0.1571
     24 C         141.1093  145.7125  157.8687 C.ar    1  UNL1        0.1666
     25 N         139.8198  146.4777  157.8271 N.ar    1  UNL1       -0.2215
     26 C         139.4942  146.7595  156.3902 C.ar    1  UNL1        0.1188
     27 C         140.5825  146.1685  155.5437 C.ar    1  UNL1        0.1086
     28 CL        140.6591  146.2161  154.0465 Cl      1  UNL1       -0.0734
     29 S         141.5806  145.5214  156.4575 S.2     1  UNL1       -0.0398
@<TRIPOS>BOND
     1    20    21    2
     2    21    22   am
     3    22    24    1
     4    24    25   ar
     5    25    26   ar
     6    26    27   ar
     7    27    28    1
     8    27    29   ar
     9    21     1    1
    10     1     2    2
    11     2    15    1
    12    15    16    1
    13    16    17    1
    14    17    18    1
    15    18    19    1
    16     1     3    1
    17     3     4   ar
    18     4     5   ar
    19     5     6   ar
    20     6     9    1
    21     9    10    2
    22     9    11    2
    23     9    12    1
    24    12    13    1
    25    13    14    1
    26     6     7   ar
    27     7     8   ar
    28    29    24   ar
    29    19    15    1
    30     8     3   ar
    31    14    12    1
    32    22    23    1
@<TRIPOS>MOLECULE
*****
 29 32 0 0 0
SMALL
GASTEIGER

@<TRIPOS>ATOM
      1 C         143.3728  139.9684  160.3899 C.2     1  UNL1        0.1518
      2 N         144.4300  141.0068  160.6223 N.2     1  UNL1       -0.1775
      3 C         142.4109  139.6189  161.4866 C.ar    1  UNL1        0.0237
      4 C         142.7294  138.5022  162.4360 C.ar    1  UNL1        0.0030
      5 C         141.7675  138.1528  163.5326 C.ar    1  UNL1        0.0184
      6 C         140.4870  138.9200  163.6798 C.ar    1  UNL1        0.1056
      7 C         140.1684  140.0367  162.7303 C.ar    1  UNL1        0.0184
      8 C         141.1304  140.3861  161.6337 C.ar    1  UNL1        0.0030
      9 S         139.5251  138.5706  164.7764 S.O2    1  UNL1        0.0070
     10 O         140.2236  139.5292  165.6946 O.2     1  UNL1       -0.1687
     11 O         138.8265  137.6120  163.8583 O.2     1  UNL1       -0.1687
     12 C         138.5632  138.2212  165.8731 C.3     1  UNL1        0.1339
     13 C         137.7500  137.1994  166.6110 C.3     1  UNL1        0.0257
     14 C         137.7105  138.6377  167.0346 C.3     1  UNL1        0.0257
     15 N         144.5252  141.6958  161.9513 N.pl3   1  UNL1       -0.2327
     16 C         143.8521  142.9823  162.3278 C.3     1  UNL1        0.1110
     17 C         144.2212  143.3008  163.7463 C.3     1  UNL1        0.0250
     18 C         145.1225  142.2110  164.2467 C.3     1  UNL1        0.0250
     19 C         145.3103  141.2191  163.1373 C.3     1  UNL1        0.1110
     20 O         144.0312  139.8180  157.8811 O.2     1  UNL1       -0.2681
     21 C         143.2775  139.2794  159.0609 C.2     1  UNL1        0.2702
     22 N         142.4286  138.0517  158.9117 N.am    1  UNL1       -0.2593
     23 H         141.9340  137.6982  159.6860 H       1  UNL1        0.1571
     24 C         142.3333  137.3628  157.5827 C.ar    1  UNL1        0.1666
     25 N         143.4073  136.5371  156.9386 N.ar    1  UNL1       -0.2215
     26 C         142.8851  136.0426  155.6223 C.ar    1  UNL1        0.1188
     27 C         141.4883  136.5625  155.4529 C.ar    1  UNL1        0.1086
     28 CL        140.5903  136.3107  154.2781 Cl      1  UNL1       -0.0734
     29 S         141.1473  137.3784  156.6645 S.2     1  UNL1       -0.0398
@<TRIPOS>BOND
     1    20    21    2
     2    21    22   am
     3    22    24    1
     4    24    25   ar
     5    25    26   ar
     6    26    27   ar
     7    27    28    1
     8    27    29   ar
     9    21     1    1
    10     1     2    2
    11     2    15    1
    12    15    16    1
    13    16    17    1
    14    17    18    1
    15    18    19    1
    16     1     3    1
    17     3     4   ar
    18     4     5   ar
    19     5     6   ar
    20     6     9    1
    21     9    10    2
    22     9    11    2
    23     9    12    1
    24    12    13    1
    25    13    14    1
    26     6     7   ar
    27     7     8   ar
    28    29    24   ar
    29    19    15    1
    30     8     3   ar
    31    14    12    1
    32    22    23    1
@<TRIPOS>MOLECULE
*****
 29 32 0 0 0
SMALL
GASTEIGER

@<TRIPOS>ATOM
      1 C         140.0831  140.3086  161.8902 C.2     1  UNL1        0.1518
      2 N         139.2834  141.5101  161.4815 N.2     1  UNL1       -0.1775
      3 C         140.5381  140.1587  163.3117 C.ar    1  UNL1        0.0237
      4 C         141.8974  140.6445  163.7193 C.ar    1  UNL1        0.0030
      5 C         142.3523  140.4945  165.1408 C.ar    1  UNL1        0.0184
      6 C         141.4479  139.8588  166.1546 C.ar    1  UNL1        0.1056
      7 C         140.0885  139.3730  165.7470 C.ar    1  UNL1        0.0184
      8 C         139.6336  139.5230  164.3256 C.ar    1  UNL1        0.0030
      9 S         141.9029  139.7088  167.5761 S.O2    1  UNL1        0.0070
     10 O         143.1626  139.0462  167.1029 O.2     1  UNL1       -0.1687
     11 O         140.6431  140.3714  168.0492 O.2     1  UNL1       -0.1687
     12 C         142.3578  139.5588  168.9975 C.3     1  UNL1        0.1339
     13 C         142.8662  140.1690  170.2700 C.3     1  UNL1        0.0257
     14 C         142.6375  138.6889  170.1870 C.3     1  UNL1        0.0257
     15 N         138.9386  142.5615  162.4943 N.pl3   1  UNL1       -0.2327
     16 C         139.7797  143.7510  162.8516 C.3     1  UNL1        0.1110
     17 C         139.0531  144.5326  163.9057 C.3     1  UNL1        0.0250
     18 C         137.7629  143.8263  164.1999 C.3     1  UNL1        0.0250
     19 C         137.6922  142.6080  163.3276 C.3     1  UNL1        0.1110
     20 O         140.2854  137.8052  161.2257 O.2     1  UNL1       -0.2681
     21 C         140.4278  139.2572  160.8775 C.2     1  UNL1        0.2702
     22 N         140.9151  139.6578  159.5165 N.am    1  UNL1       -0.2593
     23 H         141.0086  140.6109  159.2880 H       1  UNL1        0.1571
     24 C         141.2598  138.6064  158.5038 C.ar    1  UNL1        0.1666
     25 N         142.5719  137.8885  158.3900 N.ar    1  UNL1       -0.2215
     26 C         142.4761  136.9267  157.2430 C.ar    1  UNL1        0.1188
     27 C         141.1047  137.0501  156.6479 C.ar    1  UNL1        0.1086
     28 CL        140.5776  136.2721  155.4788 Cl      1  UNL1       -0.0734
     29 S         140.3530  138.0883  157.4271 S.2     1  UNL1       -0.0398
@<TRIPOS>BOND
     1    20    21    2
     2    21    22   am
     3    22    24    1
     4    24    25   ar
     5    25    26   ar
     6    26    27   ar
     7    27    28    1
     8    27    29   ar
     9    21     1    1
    10     1     2    2
    11     2    15    1
    12    15    16    1
    13    16    17    1
    14    17    18    1
    15    18    19    1
    16     1     3    1
    17     3     4   ar
    18     4     5   ar
    19     5     6   ar
    20     6     9    1
    21     9    10    2
    22     9    11    2
    23     9    12    1
    24    12    13    1
    25    13    14    1
    26     6     7   ar
    27     7     8   ar
    28    29    24   ar
    29    19    15    1
    30     8     3   ar
    31    14    12    1
    32    22    23    1
@<TRIPOS>MOLECULE
*****
 29 32 0 0 0
SMALL
GASTEIGER

@<TRIPOS>ATOM
      1 C         140.9731  141.6634  161.6866 C.2     1  UNL1        0.1518
      2 N         142.3866  141.7792  161.1979 N.2     1  UNL1       -0.1775
      3 C         140.7003  141.4165  163.1408 C.ar    1  UNL1        0.0237
      4 C         140.5561  140.0127  163.6490 C.ar    1  UNL1        0.0030
      5 C         140.2832  139.7658  165.1032 C.ar    1  UNL1        0.0184
      6 C         140.1545  140.9228  166.0491 C.ar    1  UNL1        0.1056
      7 C         140.2986  142.3267  165.5408 C.ar    1  UNL1        0.0184
      8 C         140.5715  142.5735  164.0867 C.ar    1  UNL1        0.0030
      9 S         139.8816  140.6759  167.5033 S.O2    1  UNL1        0.0070
     10 O         140.5298  141.9842  167.8470 O.2     1  UNL1       -0.1687
     11 O         139.2334  139.3677  167.1596 O.2     1  UNL1       -0.1687
     12 C         139.6087  140.4291  168.9574 C.3     1  UNL1        0.1339
     13 C         138.6484  140.3782  170.1086 C.3     1  UNL1        0.0257
     14 C         140.0965  140.0524  170.3250 C.3     1  UNL1        0.0257
     15 N         143.5271  141.6481  162.1634 N.pl3   1  UNL1       -0.2327
     16 C         144.2045  140.3697  162.5594 C.3     1  UNL1        0.1110
     17 C         145.2865  140.7039  163.5431 C.3     1  UNL1        0.0250
     18 C         145.2777  142.1889  163.7550 C.3     1  UNL1        0.0250
     19 C         144.1904  142.7724  162.9023 C.3     1  UNL1        0.1110
     20 O         138.5220  142.3607  161.1811 O.2     1  UNL1       -0.2681
     21 C         139.8327  141.7945  160.7212 C.2     1  UNL1        0.2702
     22 N         140.0028  141.3594  159.2957 N.am    1  UNL1       -0.2593
     23 H         140.8630  140.9878  158.9938 H       1  UNL1        0.1571
     24 C         138.8623  141.4905  158.3303 C.ar    1  UNL1        0.1666
     25 N         137.8438  140.4339  158.0203 N.ar    1  UNL1       -0.2215
     26 C         136.8921  140.9916  157.0038 C.ar    1  UNL1        0.1188
     27 C         137.3224  142.3929  156.6856 C.ar    1  UNL1        0.1086
     28 CL        136.6527  143.3226  155.7176 Cl      1  UNL1       -0.0734
     29 S         138.5401  142.7012  157.5055 S.2     1  UNL1       -0.0398
@<TRIPOS>BOND
     1    20    21    2
     2    21    22   am
     3    22    24    1
     4    24    25   ar
     5    25    26   ar
     6    26    27   ar
     7    27    28    1
     8    27    29   ar
     9    21     1    1
    10     1     2    2
    11     2    15    1
    12    15    16    1
    13    16    17    1
    14    17    18    1
    15    18    19    1
    16     1     3    1
    17     3     4   ar
    18     4     5   ar
    19     5     6   ar
    20     6     9    1
    21     9    10    2
    22     9    11    2
    23     9    12    1
    24    12    13    1
    25    13    14    1
    26     6     7   ar
    27     7     8   ar
    28    29    24   ar
    29    19    15    1
    30     8     3   ar
    31    14    12    1
    32    22    23    1
@<TRIPOS>MOLECULE
*****
 29 32 0 0 0
SMALL
GASTEIGER

@<TRIPOS>ATOM
      1 C         141.0391  140.2568  164.1330 C.2     1  UNL1        0.1518
      2 N         141.7117  138.9252  163.9764 N.2     1  UNL1       -0.1775
      3 C         141.0371  141.2344  162.9953 C.ar    1  UNL1        0.0237
      4 C         139.9421  141.1911  161.9711 C.ar    1  UNL1        0.0030
      5 C         139.9402  142.1687  160.8335 C.ar    1  UNL1        0.0184
      6 C         141.0333  143.1897  160.7201 C.ar    1  UNL1        0.1056
      7 C         142.1283  143.2330  161.7443 C.ar    1  UNL1        0.0184
      8 C         142.1302  142.2554  162.8819 C.ar    1  UNL1        0.0030
      9 S         141.0313  144.1674  159.5824 S.O2    1  UNL1        0.0070
     10 O         139.5485  143.9944  159.4364 O.2     1  UNL1       -0.1687
     11 O         142.5141  144.3404  159.7284 O.2     1  UNL1       -0.1687
     12 C         141.0293  145.1450  158.4448 C.3     1  UNL1        0.1339
     13 C         140.3036  146.1397  157.5881 C.3     1  UNL1        0.0257
     14 C         141.7514  145.8435  157.3310 C.3     1  UNL1        0.0257
     15 N         142.3824  138.5713  162.6821 N.pl3   1  UNL1       -0.2327
     16 C         141.7472  137.8563  161.5266 C.3     1  UNL1        0.1110
     17 C         142.7782  137.7134  160.4465 C.3     1  UNL1        0.0250
     18 C         144.0507  138.3402  160.9345 C.3     1  UNL1        0.0250
     19 C         143.8060  138.8704  162.3162 C.3     1  UNL1        0.1110
     20 O         139.0019  141.2292  165.4192 O.2     1  UNL1       -0.2681
     21 C         140.3685  140.6107  165.4272 C.2     1  UNL1        0.2702
     22 N         141.0644  140.3461  166.7294 N.am    1  UNL1       -0.2593
     23 H         141.9613  139.9402  166.7347 H       1  UNL1        0.1571
     24 C         140.3938  140.7001  168.0236 C.ar    1  UNL1        0.1666
     25 N         139.4724  139.8153  168.8100 N.ar    1  UNL1       -0.2215
     26 C         139.0359  140.5693  170.0310 C.ar    1  UNL1        0.1188
     27 C         139.6875  141.9201  169.9993 C.ar    1  UNL1        0.1086
     28 CL        139.5280  143.0003  171.0277 Cl      1  UNL1       -0.0734
     29 S         140.5267  142.0008  168.7587 S.2     1  UNL1       -0.0398
@<TRIPOS>BOND
     1    20    21    2
     2    21    22   am
     3    22    24    1
     4    24    25   ar
     5    25    26   ar
     6    26    27   ar
     7    27    28    1
     8    27    29   ar
     9    21     1    1
    10     1     2    2
    11     2    15    1
    12    15    16    1
    13    16    17    1
    14    17    18    1
    15    18    19    1
    16     1     3    1
    17     3     4   ar
    18     4     5   ar
    19     5     6   ar
    20     6     9    1
    21     9    10    2
    22     9    11    2
    23     9    12    1
    24    12    13    1
    25    13    14    1
    26     6     7   ar
    27     7     8   ar
    28    29    24   ar
    29    19    15    1
    30     8     3   ar
    31    14    12    1
    32    22    23    1
@<TRIPOS>MOLECULE
*****
 29 32 0 0 0
SMALL
GASTEIGER

@<TRIPOS>ATOM
      1 C         140.9236  141.7917  162.2268 C.2     1  UNL1        0.1518
      2 N         140.5571  140.4510  161.6628 N.2     1  UNL1       -0.1775
      3 C         141.1764  141.9430  163.6976 C.ar    1  UNL1        0.0237
      4 C         142.5535  141.7200  164.2487 C.ar    1  UNL1        0.0030
      5 C         142.8063  141.8713  165.7195 C.ar    1  UNL1        0.0184
      6 C         141.6819  142.2456  166.6391 C.ar    1  UNL1        0.1056
      7 C         140.3048  142.4686  166.0880 C.ar    1  UNL1        0.0184
      8 C         140.0521  142.3173  164.6172 C.ar    1  UNL1        0.0030
      9 S         141.9347  142.3969  168.1100 S.O2    1  UNL1        0.0070
     10 O         140.5154  142.8398  168.3083 O.2     1  UNL1       -0.1687
     11 O         143.3540  141.9539  167.9116 O.2     1  UNL1       -0.1687
     12 C         142.1874  142.5481  169.5807 C.3     1  UNL1        0.1339
     13 C         142.8616  143.2589  170.7166 C.3     1  UNL1        0.0257
     14 C         141.9510  142.0993  170.9923 C.3     1  UNL1        0.0257
     15 N         140.4434  139.2615  162.5696 N.pl3   1  UNL1       -0.2327
     16 C         139.2182  138.8452  163.3283 C.3     1  UNL1        0.1110
     17 C         139.5525  137.6060  164.1046 C.3     1  UNL1        0.0250
     18 C         140.9844  137.2564  163.8256 C.3     1  UNL1        0.0250
     19 C         141.5349  138.2796  162.8770 C.3     1  UNL1        0.1110
     20 O         141.2095  144.3534  161.9008 O.2     1  UNL1       -0.2681
     21 C         141.0374  142.9811  161.3200 C.2     1  UNL1        0.2702
     22 N         140.9790  142.7984  159.8322 N.am    1  UNL1       -0.2593
     23 H         140.8660  141.8978  159.4510 H       1  UNL1        0.1571
     24 C         141.0928  143.9878  158.9255 C.ar    1  UNL1        0.1666
     25 N         142.3462  144.7594  158.6363 N.ar    1  UNL1       -0.2215
     26 C         142.0012  145.8629  157.6808 C.ar    1  UNL1        0.1188
     27 C         140.5344  145.7734  157.3793 C.ar    1  UNL1        0.1086
     28 CL        139.7644  146.6831  156.4686 Cl      1  UNL1       -0.0734
     29 S         139.9730  144.6145  158.1486 S.2     1  UNL1       -0.0398
@<TRIPOS>BOND
     1    20    21    2
     2    21    22   am
     3    22    24    1
     4    24    25   ar
     5    25    26   ar
     6    26    27   ar
     7    27    28    1
     8    27    29   ar
     9    21     1    1
    10     1     2    2
    11     2    15    1
    12    15    16    1
    13    16    17    1
    14    17    18    1
    15    18    19    1
    16     1     3    1
    17     3     4   ar
    18     4     5   ar
    19     5     6   ar
    20     6     9    1
    21     9    10    2
    22     9    11    2
    23     9    12    1
    24    12    13    1
    25    13    14    1
    26     6     7   ar
    27     7     8   ar
    28    29    24   ar
    29    19    15    1
    30     8     3   ar
    31    14    12    1
    32    22    23    1
@<TRIPOS>MOLECULE
*****
 29 32 0 0 0
SMALL
GASTEIGER

@<TRIPOS>ATOM
      1 C         142.3516  138.9697  159.2391 C.2     1  UNL1        0.1518
      2 N         143.3221  140.1024  159.0808 N.2     1  UNL1       -0.1775
      3 C         141.5826  138.8141  160.5176 C.ar    1  UNL1        0.0237
      4 C         140.3362  139.6169  160.7456 C.ar    1  UNL1        0.0030
      5 C         139.5673  139.4613  162.0241 C.ar    1  UNL1        0.0184
      6 C         140.0447  138.5028  163.0745 C.ar    1  UNL1        0.1056
      7 C         141.2911  137.7000  162.8465 C.ar    1  UNL1        0.0184
      8 C         142.0600  137.8557  161.5680 C.ar    1  UNL1        0.0030
      9 S         139.2758  138.3472  164.3530 S.O2    1  UNL1        0.0070
     10 O         140.3568  137.4599  164.8952 O.2     1  UNL1       -0.1687
     11 O         138.1947  139.2344  163.8108 O.2     1  UNL1       -0.1687
     12 C         138.5068  138.1915  165.6315 C.3     1  UNL1        0.1339
     13 C         138.0175  138.7599  166.9305 C.3     1  UNL1        0.0257
     14 C         137.6643  137.3535  166.5468 C.3     1  UNL1        0.0257
     15 N         143.5237  141.0794  160.2011 N.pl3   1  UNL1       -0.2327
     16 C         142.9036  142.4412  160.3056 C.3     1  UNL1        0.1110
     17 C         143.3774  143.0695  161.5825 C.3     1  UNL1        0.0250
     18 C         144.2905  142.0961  162.2672 C.3     1  UNL1        0.0250
     19 C         144.3809  140.8661  161.4134 C.3     1  UNL1        0.1110
     20 O         140.7827  137.7923  157.5355 O.2     1  UNL1       -0.2681
     21 C         142.1499  137.9927  158.1189 C.2     1  UNL1        0.2702
     22 N         143.3156  137.2161  157.5822 N.am    1  UNL1       -0.2593
     23 H         144.2130  137.3476  157.9651 H       1  UNL1        0.1571
     24 C         143.1140  136.2391  156.4620 C.ar    1  UNL1        0.1666
     25 N         142.6846  136.5760  155.0649 N.ar    1  UNL1       -0.2215
     26 C         142.6116  135.2988  154.2817 C.ar    1  UNL1        0.1188
     27 C         142.9960  134.1725  155.1948 C.ar    1  UNL1        0.1086
     28 CL        143.0588  132.7201  154.8253 Cl      1  UNL1       -0.0734
     29 S         143.3065  134.7536  156.5423 S.2     1  UNL1       -0.0398
@<TRIPOS>BOND
     1    20    21    2
     2    21    22   am
     3    22    24    1
     4    24    25   ar
     5    25    26   ar
     6    26    27   ar
     7    27    28    1
     8    27    29   ar
     9    21     1    1
    10     1     2    2
    11     2    15    1
    12    15    16    1
    13    16    17    1
    14    17    18    1
    15    18    19    1
    16     1     3    1
    17     3     4   ar
    18     4     5   ar
    19     5     6   ar
    20     6     9    1
    21     9    10    2
    22     9    11    2
    23     9    12    1
    24    12    13    1
    25    13    14    1
    26     6     7   ar
    27     7     8   ar
    28    29    24   ar
    29    19    15    1
    30     8     3   ar
    31    14    12    1
    32    22    23    1
@<TRIPOS>MOLECULE
*****
 29 32 0 0 0
SMALL
GASTEIGER

@<TRIPOS>ATOM
      1 C         142.0928  140.9979  161.8081 C.2     1  UNL1        0.1518
      2 N         142.6379  142.3079  161.3214 N.2     1  UNL1       -0.1775
      3 C         141.6525  140.8524  163.2347 C.ar    1  UNL1        0.0237
      4 C         142.6610  140.5542  164.3042 C.ar    1  UNL1        0.0030
      5 C         142.2206  140.4087  165.7306 C.ar    1  UNL1        0.0184
      6 C         140.7718  140.5614  166.0876 C.ar    1  UNL1        0.1056
      7 C         139.7632  140.8596  165.0181 C.ar    1  UNL1        0.0184
      8 C         140.2036  141.0051  163.5916 C.ar    1  UNL1        0.0030
      9 S         140.3314  140.4159  167.5142 S.O2    1  UNL1        0.0070
     10 O         139.1096  139.6729  167.0612 O.2     1  UNL1       -0.1687
     11 O         141.5532  141.1589  167.9671 O.2     1  UNL1       -0.1687
     12 C         139.8911  140.2704  168.9406 C.3     1  UNL1        0.1339
     13 C         138.8118  140.3368  169.9802 C.3     1  UNL1        0.0257
     14 C         140.2077  139.9518  170.3718 C.3     1  UNL1        0.0257
     15 N         142.7426  143.4723  162.2612 N.pl3   1  UNL1       -0.2327
     16 C         143.9863  143.9282  162.9650 C.3     1  UNL1        0.1110
     17 C         143.6344  145.1229  163.8010 C.3     1  UNL1        0.0250
     18 C         142.1731  145.4054  163.6138 C.3     1  UNL1        0.0250
     19 C         141.6220  144.3853  162.6622 C.3     1  UNL1        0.1110
     20 O         141.7637  138.4521  161.4080 O.2     1  UNL1       -0.2681
     21 C         141.9880  139.8336  160.8683 C.2     1  UNL1        0.2702
     22 N         142.1076  140.0506  159.3889 N.am    1  UNL1       -0.2593
     23 H         142.2548  140.9573  159.0347 H       1  UNL1        0.1571
     24 C         142.0028  138.8862  158.4492 C.ar    1  UNL1        0.1666
     25 N         143.0529  137.8396  158.2216 N.ar    1  UNL1       -0.2215
     26 C         142.5287  136.8705  157.2038 C.ar    1  UNL1        0.1188
     27 C         141.1545  137.3182  156.8022 C.ar    1  UNL1        0.1086
     28 CL        140.2620  136.6393  155.8059 Cl      1  UNL1       -0.0734
     29 S         140.8295  138.5640  157.5719 S.2     1  UNL1       -0.0398
@<TRIPOS>BOND
     1    20    21    2
     2    21    22   am
     3    22    24    1
     4    24    25   ar
     5    25    26   ar
     6    26    27   ar
     7    27    28    1
     8    27    29   ar
     9    21     1    1
    10     1     2    2
    11     2    15    1
    12    15    16    1
    13    16    17    1
    14    17    18    1
    15    18    19    1
    16     1     3    1
    17     3     4   ar
    18     4     5   ar
    19     5     6   ar
    20     6     9    1
    21     9    10    2
    22     9    11    2
    23     9    12    1
    24    12    13    1
    25    13    14    1
    26     6     7   ar
    27     7     8   ar
    28    29    24   ar
    29    19    15    1
    30     8     3   ar
    31    14    12    1
    32    22    23    1
@<TRIPOS>MOLECULE
*****
 29 32 0 0 0
SMALL
GASTEIGER

@<TRIPOS>ATOM
      1 C         141.8568  142.2654  162.1197 C.2     1  UNL1        0.1518
      2 N         140.7609  143.2329  161.7835 N.2     1  UNL1       -0.1775
      3 C         142.0069  141.7606  163.5243 C.ar    1  UNL1        0.0237
      4 C         141.1949  140.5889  163.9908 C.ar    1  UNL1        0.0030
      5 C         141.3450  140.0841  165.3953 C.ar    1  UNL1        0.0184
      6 C         142.3070  140.7511  166.3332 C.ar    1  UNL1        0.1056
      7 C         143.1189  141.9228  165.8667 C.ar    1  UNL1        0.0184
      8 C         142.9689  142.4276  164.4622 C.ar    1  UNL1        0.0030
      9 S         142.4570  140.2463  167.7378 S.O2    1  UNL1        0.0070
     10 O         141.7942  141.4884  168.2550 O.2     1  UNL1       -0.1687
     11 O         143.1199  139.0041  167.2206 O.2     1  UNL1       -0.1687
     12 C         142.6070  139.7415  169.1423 C.3     1  UNL1        0.1339
     13 C         142.6005  138.6059  170.1222 C.3     1  UNL1        0.0257
     14 C         142.8734  140.0029  170.5951 C.3     1  UNL1        0.0257
     15 N         139.8151  143.6955  162.8519 N.pl3   1  UNL1       -0.2327
     16 C         140.1073  144.7254  163.9026 C.3     1  UNL1        0.1110
     17 C         138.8838  144.8759  164.7572 C.3     1  UNL1        0.0250
     18 C         137.8353  143.9389  164.2346 C.3     1  UNL1        0.0250
     19 C         138.4109  143.2095  163.0571 C.3     1  UNL1        0.1110
     20 O         143.9242  140.8682  161.3960 O.2     1  UNL1       -0.2681
     21 C         142.8027  141.8028  161.0514 C.2     1  UNL1        0.2702
     22 N         142.6270  142.2747  159.6384 N.am    1  UNL1       -0.2593
     23 H         141.8909  142.8881  159.4122 H       1  UNL1        0.1571
     24 C         143.5728  141.8121  158.5701 C.ar    1  UNL1        0.1666
     25 N         143.4172  140.5808  157.7276 N.ar    1  UNL1       -0.2215
     26 C         144.5886  140.5072  156.7935 C.ar    1  UNL1        0.1188
     27 C         145.4682  141.6930  157.0587 C.ar    1  UNL1        0.1086
     28 CL        146.7504  142.0157  156.3503 Cl      1  UNL1       -0.0734
     29 S         144.8404  142.4994  158.1567 S.2     1  UNL1       -0.0398
@<TRIPOS>BOND
     1    20    21    2
     2    21    22   am
     3    22    24    1
     4    24    25   ar
     5    25    26   ar
     6    26    27   ar
     7    27    28    1
     8    27    29   ar
     9    21     1    1
    10     1     2    2
    11     2    15    1
    12    15    16    1
    13    16    17    1
    14    17    18    1
    15    18    19    1
    16     1     3    1
    17     3     4   ar
    18     4     5   ar
    19     5     6   ar
    20     6     9    1
    21     9    10    2
    22     9    11    2
    23     9    12    1
    24    12    13    1
    25    13    14    1
    26     6     7   ar
    27     7     8   ar
    28    29    24   ar
    29    19    15    1
    30     8     3   ar
    31    14    12    1
    32    22    23    1
