@<TRIPOS>MOLECULE
*****
 30 32 0 0 0
SMALL
GASTEIGER

@<TRIPOS>ATOM
      1 C         139.2949  139.8242  164.0532 C.ar    1  UNL1        0.1525
      2 C         140.3499  140.7109  164.6453 C.ar    1  UNL1        0.1337
      3 N         140.4819  140.8278  166.1349 N.ar    1  UNL1       -0.2316
      4 C         139.5590  140.0580  167.0324 C.ar    1  UNL1        0.1420
      5 C         138.5040  139.1713  166.4403 C.ar    1  UNL1        0.1508
      6 N         137.5809  138.4014  167.3377 N.pl3   1  UNL1       -0.3410
      7 N         138.3719  139.0544  164.9507 N.ar    1  UNL1       -0.2128
      8 H         137.6676  138.4781  168.3154 H       1  UNL1        0.1438
      9 H         136.8885  137.8194  166.9491 H       1  UNL1        0.1438
     10 C         139.5599  138.7939  158.4220 C.3     1  UNL1        0.0157
     11 C         138.8988  139.4736  159.5844 C.3     1  UNL1        0.0422
     12 N         138.0354  139.9741  158.4645 N.3     1  UNL1       -0.3231
     13 C         137.9379  140.3270  160.3579 C.3     1  UNL1        0.0357
     14 C         138.0699  140.4439  161.8475 C.3     1  UNL1        0.0935
     15 N         139.1629  139.7073  162.5636 N.pl3   1  UNL1       -0.2919
     16 C         140.1237  138.8539  161.7902 C.3     1  UNL1        0.0935
     17 C         139.9917  138.7370  160.3006 C.3     1  UNL1        0.0357
     18 H         137.3117  140.5866  158.8408 H       1  UNL1        0.1188
     19 H         137.5989  139.1826  157.9918 H       1  UNL1        0.1188
     20 S         139.6910  140.1748  168.5220 S.3     1  UNL1       -0.0638
     21 C         140.6110  141.2003  169.1152 C.ar    1  UNL1        0.0526
     22 C         140.1081  142.5849  169.3982 C.ar    1  UNL1        0.0096
     23 C         141.0281  143.6104  169.9914 C.ar    1  UNL1        0.0212
     24 C         142.4510  143.2513  170.3017 C.ar    1  UNL1        0.0988
     25 N         142.9540  141.8668  170.0188 N.ar    1  UNL1       -0.2394
     26 C         142.0340  140.8413  169.4255 C.ar    1  UNL1        0.1586
     27 C         142.5369  139.4567  169.1425 C.3     1  UNL1        0.4353
     28 F         143.0399  138.0722  168.8596 F       1  UNL1       -0.1644
     29 F         143.0329  139.9109  167.8018 F       1  UNL1       -0.1644
     30 F         142.0410  139.0026  170.4833 F       1  UNL1       -0.1644
@<TRIPOS>BOND
     1    10    11    1
     2    11    12    1
     3    11    13    1
     4    13    14    1
     5    14    15    1
     6    15     1    1
     7     1     2   ar
     8     2     3   ar
     9     3     4   ar
    10     4    20    1
    11    20    21    1
    12    21    22   ar
    13    22    23   ar
    14    23    24   ar
    15    24    25   ar
    16    25    26   ar
    17    26    27    1
    18    27    28    1
    19    27    29    1
    20    27    30    1
    21     4     5   ar
    22     5     6    1
    23     5     7   ar
    24    15    16    1
    25    16    17    1
    26    17    11    1
    27     7     1   ar
    28    26    21   ar
    29    12    18    1
    30    12    19    1
    31     6     8    1
    32     6     9    1
@<TRIPOS>MOLECULE
*****
 30 32 0 0 0
SMALL
GASTEIGER

@<TRIPOS>ATOM
      1 C         140.1935  141.9833  166.4183 C.ar    1  UNL1        0.1525
      2 C         139.8797  140.5652  166.0436 C.ar    1  UNL1        0.1337
      3 N         138.9606  140.2793  164.8931 N.ar    1  UNL1       -0.2316
      4 C         138.3553  141.4115  164.1175 C.ar    1  UNL1        0.1420
      5 C         138.6691  142.8296  164.4923 C.ar    1  UNL1        0.1508
      6 N         138.0638  143.9619  163.7166 N.pl3   1  UNL1       -0.3410
      7 N         139.5882  143.1155  165.6427 N.ar    1  UNL1       -0.2128
      8 H         137.4605  143.7743  162.9615 H       1  UNL1        0.1438
      9 H         138.2698  144.8927  163.9626 H       1  UNL1        0.1438
     10 C         144.3891  142.6717  170.2609 C.3     1  UNL1        0.0157
     11 C         142.9509  142.8409  169.8696 C.3     1  UNL1        0.0422
     12 N         142.9209  143.4481  171.2410 N.3     1  UNL1       -0.3231
     13 C         141.5024  143.2209  169.9546 C.3     1  UNL1        0.0357
     14 C         140.5832  142.9351  168.8042 C.3     1  UNL1        0.0935
     15 N         141.1126  142.2691  167.5688 N.pl3   1  UNL1       -0.2919
     16 C         142.5612  141.8891  167.4838 C.3     1  UNL1        0.0935
     17 C         143.4803  142.1749  168.6343 C.3     1  UNL1        0.0357
     18 H         141.9745  143.7645  171.4521 H       1  UNL1        0.1188
     19 H         143.5604  144.2419  171.2753 H       1  UNL1        0.1188
     20 S         137.4361  141.1256  162.9671 S.3     1  UNL1       -0.0638
     21 C         137.9874  141.0138  161.5765 C.ar    1  UNL1        0.0526
     22 C         138.0609  142.2281  160.6989 C.ar    1  UNL1        0.0096
     23 C         138.6121  142.1163  159.3084 C.ar    1  UNL1        0.0212
     24 C         139.0899  140.7902  158.7954 C.ar    1  UNL1        0.0988
     25 N         139.0164  139.5759  159.6729 N.ar    1  UNL1       -0.2394
     26 C         138.4652  139.6877  161.0635 C.ar    1  UNL1        0.1586
     27 C         138.3917  138.4734  161.9411 C.3     1  UNL1        0.4353
     28 F         138.3182  137.2592  162.8186 F       1  UNL1       -0.1644
     29 F         139.8072  138.7049  162.3799 F       1  UNL1       -0.1644
     30 F         136.9762  138.2419  161.5022 F       1  UNL1       -0.1644
@<TRIPOS>BOND
     1    10    11    1
     2    11    12    1
     3    11    13    1
     4    13    14    1
     5    14    15    1
     6    15     1    1
     7     1     2   ar
     8     2     3   ar
     9     3     4   ar
    10     4    20    1
    11    20    21    1
    12    21    22   ar
    13    22    23   ar
    14    23    24   ar
    15    24    25   ar
    16    25    26   ar
    17    26    27    1
    18    27    28    1
    19    27    29    1
    20    27    30    1
    21     4     5   ar
    22     5     6    1
    23     5     7   ar
    24    15    16    1
    25    16    17    1
    26    17    11    1
    27     7     1   ar
    28    26    21   ar
    29    12    18    1
    30    12    19    1
    31     6     8    1
    32     6     9    1
@<TRIPOS>MOLECULE
*****
 30 32 0 0 0
SMALL
GASTEIGER

@<TRIPOS>ATOM
      1 C         141.4456  142.5119  166.3950 C.ar    1  UNL1        0.1525
      2 C         142.2337  142.5758  165.1203 C.ar    1  UNL1        0.1337
      3 N         141.7643  143.4443  163.9910 N.ar    1  UNL1       -0.2316
      4 C         140.5068  144.2490  164.1363 C.ar    1  UNL1        0.1420
      5 C         139.7187  144.1851  165.4110 C.ar    1  UNL1        0.1508
      6 N         138.4611  144.9898  165.5563 N.pl3   1  UNL1       -0.3410
      7 N         140.1881  143.3165  166.5403 N.ar    1  UNL1       -0.2128
      8 H         138.1530  145.5598  164.8151 H       1  UNL1        0.1438
      9 H         137.9438  144.9478  166.3929 H       1  UNL1        0.1438
     10 C         142.7703  138.4830  170.2492 C.3     1  UNL1        0.0157
     11 C         142.8536  139.9063  169.7829 C.3     1  UNL1        0.0422
     12 N         143.6561  139.9989  171.0469 N.3     1  UNL1       -0.3231
     13 C         143.2157  141.3616  169.7556 C.3     1  UNL1        0.0357
     14 C         142.7463  142.2302  168.6262 C.3     1  UNL1        0.0935
     15 N         141.9149  141.6433  167.5243 N.pl3   1  UNL1       -0.2919
     16 C         141.5529  140.1880  167.5516 C.3     1  UNL1        0.0935
     17 C         142.0223  139.3194  168.6809 C.3     1  UNL1        0.0357
     18 H         143.9830  140.9568  171.1727 H       1  UNL1        0.1188
     19 H         144.4579  139.3711  170.9873 H       1  UNL1        0.1188
     20 S         140.0375  145.1175  163.0070 S.3     1  UNL1       -0.0638
     21 C         139.8281  144.5274  161.6440 C.ar    1  UNL1        0.0526
     22 C         140.6164  145.0405  160.4754 C.ar    1  UNL1        0.0096
     23 C         140.4070  144.4504  159.1124 C.ar    1  UNL1        0.0212
     24 C         139.4095  143.3471  158.9178 C.ar    1  UNL1        0.0988
     25 N         138.6213  142.8340  160.0863 N.ar    1  UNL1       -0.2394
     26 C         138.8306  143.4241  161.4494 C.ar    1  UNL1        0.1586
     27 C         138.0424  142.9110  162.6179 C.3     1  UNL1        0.4353
     28 F         137.2542  142.3979  163.7864 F       1  UNL1       -0.1644
     29 F         137.2322  144.1733  162.6257 F       1  UNL1       -0.1644
     30 F         138.8527  141.6488  162.6102 F       1  UNL1       -0.1644
@<TRIPOS>BOND
     1    10    11    1
     2    11    12    1
     3    11    13    1
     4    13    14    1
     5    14    15    1
     6    15     1    1
     7     1     2   ar
     8     2     3   ar
     9     3     4   ar
    10     4    20    1
    11    20    21    1
    12    21    22   ar
    13    22    23   ar
    14    23    24   ar
    15    24    25   ar
    16    25    26   ar
    17    26    27    1
    18    27    28    1
    19    27    29    1
    20    27    30    1
    21     4     5   ar
    22     5     6    1
    23     5     7   ar
    24    15    16    1
    25    16    17    1
    26    17    11    1
    27     7     1   ar
    28    26    21   ar
    29    12    18    1
    30    12    19    1
    31     6     8    1
    32     6     9    1
@<TRIPOS>MOLECULE
*****
 30 32 0 0 0
SMALL
GASTEIGER

@<TRIPOS>ATOM
      1 C         139.6862  141.9225  165.1156 C.ar    1  UNL1        0.1525
      2 C         140.5249  141.1845  164.1147 C.ar    1  UNL1        0.1337
      3 N         140.3863  141.4864  162.6520 N.ar    1  UNL1       -0.2316
      4 C         139.4089  142.5263  162.1902 C.ar    1  UNL1        0.1420
      5 C         138.5702  143.2643  163.1911 C.ar    1  UNL1        0.1508
      6 N         137.5928  144.3043  162.7294 N.pl3   1  UNL1       -0.3410
      7 N         138.7089  142.9624  164.6539 N.ar    1  UNL1       -0.2128
      8 H         137.5017  144.5025  161.7693 H       1  UNL1        0.1438
      9 H         137.0423  144.7886  163.3863 H       1  UNL1        0.1438
     10 C         140.5750  141.6650  170.7713 C.3     1  UNL1        0.0157
     11 C         140.1023  141.0167  169.5039 C.3     1  UNL1        0.0422
     12 N         139.8421  139.9057  170.4776 N.3     1  UNL1       -0.3231
     13 C         139.5392  139.9825  168.5747 C.3     1  UNL1        0.0357
     14 C         139.4006  140.2844  167.1119 C.3     1  UNL1        0.0935
     15 N         139.8249  141.6205  166.5784 N.pl3   1  UNL1       -0.2919
     16 C         140.3880  142.6547  167.5076 C.3     1  UNL1        0.0935
     17 C         140.5266  142.3527  168.9703 C.3     1  UNL1        0.0357
     18 H         139.4459  139.1062  169.9833 H       1  UNL1        0.1188
     19 H         139.1852  140.2246  171.1897 H       1  UNL1        0.1188
     20 S         139.2702  142.8283  160.7274 S.3     1  UNL1       -0.0638
     21 C         140.4897  143.1109  159.9011 C.ar    1  UNL1        0.0526
     22 C         141.0648  142.0400  159.0221 C.ar    1  UNL1        0.0096
     23 C         142.2843  142.3226  158.1957 C.ar    1  UNL1        0.0212
     24 C         142.9287  143.6761  158.2482 C.ar    1  UNL1        0.0988
     25 N         142.3537  144.7470  159.1271 N.ar    1  UNL1       -0.2394
     26 C         141.1341  144.4644  159.9536 C.ar    1  UNL1        0.1586
     27 C         140.5591  145.5353  160.8324 C.3     1  UNL1        0.4353
     28 F         139.9840  146.6062  161.7113 F       1  UNL1       -0.1644
     29 F         139.7055  146.0110  159.6944 F       1  UNL1       -0.1644
     30 F         141.4126  145.0596  161.9705 F       1  UNL1       -0.1644
@<TRIPOS>BOND
     1    10    11    1
     2    11    12    1
     3    11    13    1
     4    13    14    1
     5    14    15    1
     6    15     1    1
     7     1     2   ar
     8     2     3   ar
     9     3     4   ar
    10     4    20    1
    11    20    21    1
    12    21    22   ar
    13    22    23   ar
    14    23    24   ar
    15    24    25   ar
    16    25    26   ar
    17    26    27    1
    18    27    28    1
    19    27    29    1
    20    27    30    1
    21     4     5   ar
    22     5     6    1
    23     5     7   ar
    24    15    16    1
    25    16    17    1
    26    17    11    1
    27     7     1   ar
    28    26    21   ar
    29    12    18    1
    30    12    19    1
    31     6     8    1
    32     6     9    1
@<TRIPOS>MOLECULE
*****
 30 32 0 0 0
SMALL
GASTEIGER

@<TRIPOS>ATOM
      1 C         141.7708  139.7552  166.6390 C.ar    1  UNL1        0.1525
      2 C         142.9025  139.5378  165.6788 C.ar    1  UNL1        0.1337
      3 N         142.6805  138.7447  164.4251 N.ar    1  UNL1       -0.2316
      4 C         141.3268  138.1691  164.1317 C.ar    1  UNL1        0.1420
      5 C         140.1952  138.3865  165.0919 C.ar    1  UNL1        0.1508
      6 N         138.8414  137.8108  164.7984 N.pl3   1  UNL1       -0.3410
      7 N         140.4172  139.1795  166.3456 N.ar    1  UNL1       -0.2128
      8 H         138.6957  137.2902  163.9756 H       1  UNL1        0.1438
      9 H         138.0987  137.9535  165.4287 H       1  UNL1        0.1438
     10 C         143.1584  143.3626  170.8703 C.3     1  UNL1        0.0157
     11 C         142.4368  142.1345  170.4001 C.3     1  UNL1        0.0422
     12 N         142.0553  142.1214  171.8508 N.3     1  UNL1       -0.3231
     13 C         141.5828  140.9018  170.4337 C.3     1  UNL1        0.0357
     14 C         141.3608  140.1088  169.1801 C.3     1  UNL1        0.0935
     15 N         141.9928  140.5483  167.8927 N.pl3   1  UNL1       -0.2919
     16 C         142.8469  141.7809  167.8591 C.3     1  UNL1        0.0935
     17 C         143.0689  142.5740  169.1128 C.3     1  UNL1        0.0357
     18 H         141.4560  141.3175  172.0375 H       1  UNL1        0.1188
     19 H         141.5534  142.9798  172.0781 H       1  UNL1        0.1188
     20 S         141.1048  137.3760  162.8780 S.3     1  UNL1       -0.0638
     21 C         141.4007  137.9881  161.5410 C.ar    1  UNL1        0.0526
     22 C         142.7345  137.7641  160.8921 C.ar    1  UNL1        0.0096
     23 C         143.0304  138.3763  159.5551 C.ar    1  UNL1        0.0212
     24 C         141.9926  139.2125  158.8669 C.ar    1  UNL1        0.0988
     25 N         140.6589  139.4366  159.5157 N.ar    1  UNL1       -0.2394
     26 C         140.3629  138.8244  160.8528 C.ar    1  UNL1        0.1586
     27 C         139.0292  139.0485  161.5016 C.3     1  UNL1        0.4353
     28 F         137.6955  139.2726  162.1504 F       1  UNL1       -0.1644
     29 F         138.5093  137.7931  160.8663 F       1  UNL1       -0.1644
     30 F         139.5491  140.3039  162.1368 F       1  UNL1       -0.1644
@<TRIPOS>BOND
     1    10    11    1
     2    11    12    1
     3    11    13    1
     4    13    14    1
     5    14    15    1
     6    15     1    1
     7     1     2   ar
     8     2     3   ar
     9     3     4   ar
    10     4    20    1
    11    20    21    1
    12    21    22   ar
    13    22    23   ar
    14    23    24   ar
    15    24    25   ar
    16    25    26   ar
    17    26    27    1
    18    27    28    1
    19    27    29    1
    20    27    30    1
    21     4     5   ar
    22     5     6    1
    23     5     7   ar
    24    15    16    1
    25    16    17    1
    26    17    11    1
    27     7     1   ar
    28    26    21   ar
    29    12    18    1
    30    12    19    1
    31     6     8    1
    32     6     9    1
@<TRIPOS>MOLECULE
*****
 30 32 0 0 0
SMALL
GASTEIGER

@<TRIPOS>ATOM
      1 C         141.1879  143.5657  162.5757 C.ar    1  UNL1        0.1525
      2 C         141.7573  142.3607  163.2639 C.ar    1  UNL1        0.1337
      3 N         141.3723  142.0544  164.6809 N.ar    1  UNL1       -0.2316
      4 C         140.4179  142.9531  165.4097 C.ar    1  UNL1        0.1420
      5 C         139.8485  144.1582  164.7216 C.ar    1  UNL1        0.1508
      6 N         138.8941  145.0570  165.4504 N.pl3   1  UNL1       -0.3410
      7 N         140.2335  144.4645  163.3046 N.ar    1  UNL1       -0.2128
      8 H         138.6413  144.8560  166.3805 H       1  UNL1        0.1438
      9 H         138.5203  145.8480  164.9988 H       1  UNL1        0.1438
     10 C         142.0204  145.4596  157.2314 C.3     1  UNL1        0.0157
     11 C         142.3430  144.4846  158.3246 C.3     1  UNL1        0.0422
     12 N         143.2555  143.9787  157.2468 N.3     1  UNL1       -0.3231
     13 C         142.9824  143.3339  159.0436 C.3     1  UNL1        0.0357
     14 C         142.5974  143.0276  160.4606 C.3     1  UNL1        0.0935
     15 N         141.5729  143.8720  161.1587 N.pl3   1  UNL1       -0.2919
     16 C         140.9335  145.0227  160.4397 C.3     1  UNL1        0.0935
     17 C         141.3185  145.3290  159.0227 C.3     1  UNL1        0.0357
     18 H         143.7754  143.1721  157.5924 H       1  UNL1        0.1188
     19 H         143.9085  144.7157  156.9807 H       1  UNL1        0.1188
     20 S         140.0329  142.6469  166.8268 S.3     1  UNL1       -0.0638
     21 C         140.9890  141.9167  167.7227 C.ar    1  UNL1        0.0526
     22 C         142.2503  142.5881  168.1794 C.ar    1  UNL1        0.0096
     23 C         143.2064  141.8579  169.0753 C.ar    1  UNL1        0.0212
     24 C         142.9013  140.4565  169.5145 C.ar    1  UNL1        0.0988
     25 N         141.6401  139.7852  169.0578 N.ar    1  UNL1       -0.2394
     26 C         140.6839  140.5153  168.1619 C.ar    1  UNL1        0.1586
     27 C         139.4227  139.8440  167.7052 C.3     1  UNL1        0.4353
     28 F         138.1615  139.1727  167.2485 F       1  UNL1       -0.1644
     29 F         140.0977  139.4459  166.4262 F       1  UNL1       -0.1644
     30 F         138.7477  140.2420  168.9842 F       1  UNL1       -0.1644
@<TRIPOS>BOND
     1    10    11    1
     2    11    12    1
     3    11    13    1
     4    13    14    1
     5    14    15    1
     6    15     1    1
     7     1     2   ar
     8     2     3   ar
     9     3     4   ar
    10     4    20    1
    11    20    21    1
    12    21    22   ar
    13    22    23   ar
    14    23    24   ar
    15    24    25   ar
    16    25    26   ar
    17    26    27    1
    18    27    28    1
    19    27    29    1
    20    27    30    1
    21     4     5   ar
    22     5     6    1
    23     5     7   ar
    24    15    16    1
    25    16    17    1
    26    17    11    1
    27     7     1   ar
    28    26    21   ar
    29    12    18    1
    30    12    19    1
    31     6     8    1
    32     6     9    1
@<TRIPOS>MOLECULE
*****
 30 32 0 0 0
SMALL
GASTEIGER

@<TRIPOS>ATOM
      1 C         140.9833  144.7214  159.3188 C.ar    1  UNL1        0.1525
      2 C         142.1931  143.8346  159.3266 C.ar    1  UNL1        0.1337
      3 N         142.9820  143.6535  160.5894 N.ar    1  UNL1       -0.2316
      4 C         142.5612  144.3591  161.8444 C.ar    1  UNL1        0.1420
      5 C         141.3515  145.2459  161.8365 C.ar    1  UNL1        0.1508
      6 N         140.9306  145.9516  163.0915 N.pl3   1  UNL1       -0.3410
      7 N         140.5625  145.4270  160.5737 N.ar    1  UNL1       -0.2128
      8 H         141.4484  145.8327  163.9204 H       1  UNL1        0.1438
      9 H         140.1366  146.5336  163.0864 H       1  UNL1        0.1438
     10 C         137.7603  144.4730  154.5867 C.3     1  UNL1        0.0157
     11 C         138.6164  145.2647  155.5303 C.3     1  UNL1        0.0422
     12 N         138.2637  146.3339  154.5391 N.3     1  UNL1       -0.3231
     13 C         139.3500  146.4277  156.1296 C.3     1  UNL1        0.0357
     14 C         140.1390  146.2466  157.3924 C.3     1  UNL1        0.0935
     15 N         140.1943  144.9025  158.0559 N.pl3   1  UNL1       -0.2919
     16 C         139.4607  143.7395  157.4566 C.3     1  UNL1        0.0935
     17 C         138.6717  143.9206  156.1938 C.3     1  UNL1        0.0357
     18 H         138.7012  147.2125  154.8166 H       1  UNL1        0.1188
     19 H         137.2509  146.4520  154.5123 H       1  UNL1        0.1188
     20 S         143.3502  144.1780  163.1072 S.3     1  UNL1       -0.0638
     21 C         143.7366  142.8009  163.5592 C.ar    1  UNL1        0.0526
     22 C         145.1067  142.2696  163.2582 C.ar    1  UNL1        0.0096
     23 C         145.4930  140.8925  163.7102 C.ar    1  UNL1        0.0212
     24 C         144.5093  140.0467  164.4631 C.ar    1  UNL1        0.0988
     25 N         143.1393  140.5780  164.7641 N.ar    1  UNL1       -0.2394
     26 C         142.7529  141.9551  164.3122 C.ar    1  UNL1        0.1586
     27 C         141.3828  142.4864  164.6131 C.3     1  UNL1        0.4353
     28 F         140.0127  143.0177  164.9141 F       1  UNL1       -0.1644
     29 F         141.8816  143.0336  165.9176 F       1  UNL1       -0.1644
     30 F         140.8840  141.9392  163.3087 F       1  UNL1       -0.1644
@<TRIPOS>BOND
     1    10    11    1
     2    11    12    1
     3    11    13    1
     4    13    14    1
     5    14    15    1
     6    15     1    1
     7     1     2   ar
     8     2     3   ar
     9     3     4   ar
    10     4    20    1
    11    20    21    1
    12    21    22   ar
    13    22    23   ar
    14    23    24   ar
    15    24    25   ar
    16    25    26   ar
    17    26    27    1
    18    27    28    1
    19    27    29    1
    20    27    30    1
    21     4     5   ar
    22     5     6    1
    23     5     7   ar
    24    15    16    1
    25    16    17    1
    26    17    11    1
    27     7     1   ar
    28    26    21   ar
    29    12    18    1
    30    12    19    1
    31     6     8    1
    32     6     9    1
@<TRIPOS>MOLECULE
*****
 30 32 0 0 0
SMALL
GASTEIGER

@<TRIPOS>ATOM
      1 C         140.6640  144.7788  158.5674 C.ar    1  UNL1        0.1525
      2 C         139.6811  143.7016  158.9187 C.ar    1  UNL1        0.1337
      3 N         139.7140  143.0709  160.2792 N.ar    1  UNL1       -0.2316
      4 C         140.7299  143.5173  161.2885 C.ar    1  UNL1        0.1420
      5 C         141.7128  144.5945  160.9371 C.ar    1  UNL1        0.1508
      6 N         142.7288  145.0410  161.9464 N.pl3   1  UNL1       -0.3410
      7 N         141.6799  145.2253  159.5766 N.ar    1  UNL1       -0.2128
      8 H         142.7504  144.6271  162.8394 H       1  UNL1        0.1438
      9 H         143.3739  145.7481  161.7158 H       1  UNL1        0.1438
     10 C         141.2152  146.5362  153.1406 C.3     1  UNL1        0.0157
     11 C         140.5652  146.6710  154.4857 C.3     1  UNL1        0.0422
     12 N         139.8646  147.7722  153.7463 N.3     1  UNL1       -0.3231
     13 C         139.6719  147.1882  155.5740 C.3     1  UNL1        0.0357
     14 C         139.7048  146.5575  156.9346 C.3     1  UNL1        0.0935
     15 N         140.6311  145.4095  157.2068 N.pl3   1  UNL1       -0.2919
     16 C         141.5243  144.8923  156.1185 C.3     1  UNL1        0.0935
     17 C         141.4914  145.5230  154.7580 C.3     1  UNL1        0.0357
     18 H         139.2035  148.2341  154.3708 H       1  UNL1        0.1188
     19 H         139.3629  147.3809  152.9491 H       1  UNL1        0.1188
     20 S         140.7629  142.8866  162.6490 S.3     1  UNL1       -0.0638
     21 C         139.9984  141.6224  162.9083 C.ar    1  UNL1        0.0526
     22 C         140.5773  140.2993  162.5031 C.ar    1  UNL1        0.0096
     23 C         139.8128  139.0351  162.7625 C.ar    1  UNL1        0.0212
     24 C         138.4693  139.0939  163.4270 C.ar    1  UNL1        0.0988
     25 N         137.8904  140.4170  163.8321 N.ar    1  UNL1       -0.2394
     26 C         138.6549  141.6813  163.5728 C.ar    1  UNL1        0.1586
     27 C         138.0759  143.0044  163.9780 C.3     1  UNL1        0.4353
     28 F         137.4969  144.3274  164.3832 F       1  UNL1       -0.1644
     29 F         137.3960  143.1149  162.6456 F       1  UNL1       -0.1644
     30 F         138.7558  142.8938  165.3105 F       1  UNL1       -0.1644
@<TRIPOS>BOND
     1    10    11    1
     2    11    12    1
     3    11    13    1
     4    13    14    1
     5    14    15    1
     6    15     1    1
     7     1     2   ar
     8     2     3   ar
     9     3     4   ar
    10     4    20    1
    11    20    21    1
    12    21    22   ar
    13    22    23   ar
    14    23    24   ar
    15    24    25   ar
    16    25    26   ar
    17    26    27    1
    18    27    28    1
    19    27    29    1
    20    27    30    1
    21     4     5   ar
    22     5     6    1
    23     5     7   ar
    24    15    16    1
    25    16    17    1
    26    17    11    1
    27     7     1   ar
    28    26    21   ar
    29    12    18    1
    30    12    19    1
    31     6     8    1
    32     6     9    1
@<TRIPOS>MOLECULE
*****
 30 32 0 0 0
SMALL
GASTEIGER

@<TRIPOS>ATOM
      1 C         139.8529  141.5070  165.7678 C.ar    1  UNL1        0.1525
      2 C         141.0086  141.7835  164.8525 C.ar    1  UNL1        0.1337
      3 N         140.7853  141.8875  163.3729 N.ar    1  UNL1       -0.2316
      4 C         139.4062  141.7150  162.8086 C.ar    1  UNL1        0.1420
      5 C         138.2506  141.4386  163.7239 C.ar    1  UNL1        0.1508
      6 N         136.8714  141.2661  163.1597 N.pl3   1  UNL1       -0.3410
      7 N         138.4739  141.3346  165.2036 N.ar    1  UNL1       -0.2128
      8 H         136.7248  141.3344  162.1885 H       1  UNL1        0.1438
      9 H         136.1129  141.0847  163.7604 H       1  UNL1        0.1438
     10 C         141.0923  141.9935  171.3418 C.3     1  UNL1        0.0157
     11 C         140.5230  141.1950  170.2067 C.3     1  UNL1        0.0422
     12 N         140.2959  140.2372  171.3386 N.3     1  UNL1       -0.3231
     13 C         139.8749  140.0639  169.4647 C.3     1  UNL1        0.0357
     14 C         139.6516  140.1679  167.9851 C.3     1  UNL1        0.0935
     15 N         140.0763  141.4030  167.2475 N.pl3   1  UNL1       -0.2919
     16 C         140.7244  142.5341  167.9895 C.3     1  UNL1        0.0935
     17 C         140.9477  142.4301  169.4691 C.3     1  UNL1        0.0357
     18 H         139.8482  139.3920  170.9841 H       1  UNL1        0.1188
     19 H         139.6943  140.6731  172.0374 H       1  UNL1        0.1188
     20 S         139.1829  141.8190  161.3289 S.3     1  UNL1       -0.0638
     21 C         139.9654  140.9502  160.3894 C.ar    1  UNL1        0.0526
     22 C         141.1611  141.5057  159.6741 C.ar    1  UNL1        0.0096
     23 C         141.9436  140.6368  158.7346 C.ar    1  UNL1        0.0212
     24 C         141.5304  139.2124  158.5103 C.ar    1  UNL1        0.0988
     25 N         140.3347  138.6569  159.2256 N.ar    1  UNL1       -0.2394
     26 C         139.5522  139.5257  160.1652 C.ar    1  UNL1        0.1586
     27 C         138.3565  138.9702  160.8805 C.3     1  UNL1        0.4353
     28 F         137.1608  138.4146  161.5957 F       1  UNL1       -0.1644
     29 F         139.2569  138.3687  161.9184 F       1  UNL1       -0.1644
     30 F         137.4561  139.5717  159.8425 F       1  UNL1       -0.1644
@<TRIPOS>BOND
     1    10    11    1
     2    11    12    1
     3    11    13    1
     4    13    14    1
     5    14    15    1
     6    15     1    1
     7     1     2   ar
     8     2     3   ar
     9     3     4   ar
    10     4    20    1
    11    20    21    1
    12    21    22   ar
    13    22    23   ar
    14    23    24   ar
    15    24    25   ar
    16    25    26   ar
    17    26    27    1
    18    27    28    1
    19    27    29    1
    20    27    30    1
    21     4     5   ar
    22     5     6    1
    23     5     7   ar
    24    15    16    1
    25    16    17    1
    26    17    11    1
    27     7     1   ar
    28    26    21   ar
    29    12    18    1
    30    12    19    1
    31     6     8    1
    32     6     9    1
