@<TRIPOS>MOLECULE
*****
 32 36 0 0 0
SMALL
GASTEIGER

@<TRIPOS>ATOM
      1 C         141.0405  144.1946  158.2090 C.2     1  UNL1        0.2419
      2 O         139.6805  144.4162  157.6163 O.2     1  UNL1       -0.2734
      3 N         141.1958  143.3378  159.4304 N.am    1  UNL1       -0.2694
      4 C         142.5558  143.1163  160.0231 C.3     1  UNL1        0.1184
      5 C         142.7111  142.2594  161.2445 C.3     1  UNL1        0.1299
      6 N         141.5064  141.6242  161.8731 N.ar    1  UNL1       -0.3005
      7 C         140.1465  141.8457  161.2804 C.ar    1  UNL1        0.1416
      8 N         139.1499  141.0949  162.1131 N.ar    1  UNL1       -0.2279
      9 C         139.8941  140.4093  163.2204 C.ar    1  UNL1        0.1125
     10 C         141.3505  140.7364  163.0721 C.ar    1  UNL1        0.1318
     11 C         139.9912  142.7025  160.0590 C.3     1  UNL1        0.1578
     12 C         139.2882  139.5478  164.2886 C.ar    1  UNL1        0.0204
     13 C         138.6544  140.1800  165.4922 C.ar    1  UNL1        0.0016
     14 C         138.0486  139.3186  166.5603 C.ar    1  UNL1        0.0000
     15 C         138.0766  137.8250  166.4248 C.ar    1  UNL1        0.0000
     16 C         138.7104  137.1929  165.2212 C.ar    1  UNL1        0.0000
     17 C         139.3162  138.0543  164.1531 C.ar    1  UNL1        0.0016
     18 N         142.5374  146.2818  157.8181 N.3     1  UNL1       -0.3135
     19 C         142.2451  144.8299  157.5804 C.3     1  UNL1        0.1517
     20 H         143.3873  146.5437  157.3186 H       1  UNL1        0.1193
     21 H         142.6665  146.4435  158.8169 H       1  UNL1        0.1193
     22 N         142.4567  140.2595  163.9659 N.pl3   1  UNL1       -0.2979
     23 H         143.2128  139.7555  163.5872 H       1  UNL1        0.1536
     24 C         142.4109  140.5506  165.4366 C.ar    1  UNL1        0.0526
     25 C         142.0821  141.9329  165.9177 C.ar    1  UNL1        0.0180
     26 C         142.0363  142.2241  167.3885 C.ar    1  UNL1        0.0415
     27 C         142.3194  141.1330  168.3782 C.ar    1  UNL1        0.1765
     28 C         142.6482  139.7508  167.8972 C.ar    1  UNL1        0.1777
     29 C         142.6940  139.4596  166.4263 C.ar    1  UNL1        0.0548
     30 O         142.8801  138.8845  169.0995 O.3     1  UNL1       -0.4346
     31 C         142.6946  139.7313  170.3237 C.3     1  UNL1        0.4294
     32 O         142.3480  141.1210  169.8779 O.3     1  UNL1       -0.4346
@<TRIPOS>BOND
     1    18    19    1
     2    19     1    1
     3     1     2    2
     4     1     3   am
     5     3     4    1
     6     4     5    1
     7     5     6    1
     8     6     7   ar
     9     7     8   ar
    10     8     9   ar
    11     9    12    1
    12    12    13   ar
    13    13    14   ar
    14    14    15   ar
    15    15    16   ar
    16    16    17   ar
    17     9    10   ar
    18    10    22    1
    19    22    24    1
    20    24    25   ar
    21    25    26   ar
    22    26    27   ar
    23    27    28   ar
    24    28    29   ar
    25    28    30    1
    26    30    31    1
    27    31    32    1
    28     7    11    1
    29    11     3    1
    30    10     6   ar
    31    29    24   ar
    32    17    12   ar
    33    32    27    1
    34    18    20    1
    35    18    21    1
    36    22    23    1
@<TRIPOS>MOLECULE
*****
 32 36 0 0 0
SMALL
GASTEIGER

@<TRIPOS>ATOM
      1 C         141.9387  140.1570  170.4353 C.2     1  UNL1        0.2419
      2 O         143.3146  139.7765  170.8958 O.2     1  UNL1       -0.2734
      3 N         141.5947  140.1039  168.9762 N.am    1  UNL1       -0.2694
      4 C         140.2188  140.4844  168.5157 C.3     1  UNL1        0.1184
      5 C         139.8748  140.4313  167.0567 C.3     1  UNL1        0.1299
      6 N         140.9067  139.9977  166.0581 N.ar    1  UNL1       -0.3005
      7 C         142.2825  139.6171  166.5186 C.ar    1  UNL1        0.1416
      8 N         143.0855  139.2322  165.3114 N.ar    1  UNL1       -0.2279
      9 C         142.2058  139.3749  164.1049 C.ar    1  UNL1        0.1125
     10 C         140.8592  139.8480  164.5664 C.ar    1  UNL1        0.1318
     11 C         142.6266  139.6703  167.9777 C.3     1  UNL1        0.1578
     12 C         142.6029  139.0939  162.6859 C.ar    1  UNL1        0.0204
     13 C         143.6934  139.8957  162.0395 C.ar    1  UNL1        0.0016
     14 C         144.0906  139.6147  160.6206 C.ar    1  UNL1        0.0000
     15 C         143.3972  138.5319  159.8482 C.ar    1  UNL1        0.0000
     16 C         142.3068  137.7300  160.4946 C.ar    1  UNL1        0.0000
     17 C         141.9096  138.0110  161.9135 C.ar    1  UNL1        0.0016
     18 N         140.7940  142.0368  171.8159 N.3     1  UNL1       -0.3135
     19 C         140.9069  140.5907  171.4338 C.3     1  UNL1        0.1517
     20 H         140.0463  142.1503  172.5003 H       1  UNL1        0.1193
     21 H         140.5831  142.5921  170.9866 H       1  UNL1        0.1193
     22 N         139.6734  140.1230  163.6900 N.pl3   1  UNL1       -0.2979
     23 H         139.1140  139.3785  163.3708 H       1  UNL1        0.1536
     24 C         139.3398  141.5325  163.3000 C.ar    1  UNL1        0.0526
     25 C         138.0103  142.1190  163.6720 C.ar    1  UNL1        0.0180
     26 C         137.6766  143.5284  163.2820 C.ar    1  UNL1        0.0415
     27 C         138.6725  144.3515  162.5199 C.ar    1  UNL1        0.1765
     28 C         140.0020  143.7650  162.1478 C.ar    1  UNL1        0.1777
     29 C         140.3357  142.3555  162.5379 C.ar    1  UNL1        0.0548
     30 O         140.7766  144.8096  161.4002 O.3     1  UNL1       -0.4346
     31 C         139.9257  146.0417  161.3103 C.3     1  UNL1        0.4294
     32 O         138.6253  145.7585  162.0023 O.3     1  UNL1       -0.4346
@<TRIPOS>BOND
     1    18    19    1
     2    19     1    1
     3     1     2    2
     4     1     3   am
     5     3     4    1
     6     4     5    1
     7     5     6    1
     8     6     7   ar
     9     7     8   ar
    10     8     9   ar
    11     9    12    1
    12    12    13   ar
    13    13    14   ar
    14    14    15   ar
    15    15    16   ar
    16    16    17   ar
    17     9    10   ar
    18    10    22    1
    19    22    24    1
    20    24    25   ar
    21    25    26   ar
    22    26    27   ar
    23    27    28   ar
    24    28    29   ar
    25    28    30    1
    26    30    31    1
    27    31    32    1
    28     7    11    1
    29    11     3    1
    30    10     6   ar
    31    29    24   ar
    32    17    12   ar
    33    32    27    1
    34    18    20    1
    35    18    21    1
    36    22    23    1
@<TRIPOS>MOLECULE
*****
 32 36 0 0 0
SMALL
GASTEIGER

@<TRIPOS>ATOM
      1 C         143.1438  139.2380  156.5208 C.2     1  UNL1        0.2419
      2 O         142.2075  138.3611  155.7434 O.2     1  UNL1       -0.2734
      3 N         142.8896  139.5031  157.9751 N.am    1  UNL1       -0.2694
      4 C         143.8259  140.3800  158.7525 C.3     1  UNL1        0.1184
      5 C         143.5718  140.6450  160.2068 C.3     1  UNL1        0.1299
      6 N         142.3813  140.0331  160.8838 N.ar    1  UNL1       -0.3005
      7 C         141.4450  139.1562  160.1065 C.ar    1  UNL1        0.1416
      8 N         140.3624  138.6947  161.0366 N.ar    1  UNL1       -0.2279
      9 C         140.6297  139.2864  162.3888 C.ar    1  UNL1        0.1125
     10 C         141.8774  140.1136  162.2944 C.ar    1  UNL1        0.1318
     11 C         141.6992  138.8912  158.6521 C.3     1  UNL1        0.1578
     12 C         139.7956  139.0862  163.6194 C.ar    1  UNL1        0.0204
     13 C         139.0105  140.2309  164.1877 C.ar    1  UNL1        0.0016
     14 C         138.1764  140.0307  165.4183 C.ar    1  UNL1        0.0000
     15 C         138.1276  138.6858  166.0805 C.ar    1  UNL1        0.0000
     16 C         138.9127  137.5410  165.5121 C.ar    1  UNL1        0.0000
     17 C         139.7467  137.7412  164.2816 C.ar    1  UNL1        0.0016
     18 N         145.6151  139.0768  155.7355 N.3     1  UNL1       -0.3135
     19 C         144.3342  139.8499  155.8437 C.3     1  UNL1        0.1517
     20 H         146.3126  139.6408  155.2498 H       1  UNL1        0.1193
     21 H         145.4498  138.2164  155.2132 H       1  UNL1        0.1193
     22 N         142.5102  140.8857  163.4139 N.pl3   1  UNL1       -0.2979
     23 H         142.8129  141.8106  163.2645 H       1  UNL1        0.1536
     24 C         142.6818  140.2489  164.7611 C.ar    1  UNL1        0.0526
     25 C         143.3897  138.9321  164.8835 C.ar    1  UNL1        0.0180
     26 C         143.5613  138.2951  166.2307 C.ar    1  UNL1        0.0415
     27 C         143.0250  138.9750  167.4555 C.ar    1  UNL1        0.1765
     28 C         142.3171  140.2918  167.3331 C.ar    1  UNL1        0.1777
     29 C         142.1455  140.9287  165.9859 C.ar    1  UNL1        0.0548
     30 O         141.8981  140.7223  168.7076 O.3     1  UNL1       -0.4346
     31 C         142.3470  139.6716  169.6794 C.3     1  UNL1        0.4294
     32 O         143.0435  138.5917  168.9056 O.3     1  UNL1       -0.4346
@<TRIPOS>BOND
     1    18    19    1
     2    19     1    1
     3     1     2    2
     4     1     3   am
     5     3     4    1
     6     4     5    1
     7     5     6    1
     8     6     7   ar
     9     7     8   ar
    10     8     9   ar
    11     9    12    1
    12    12    13   ar
    13    13    14   ar
    14    14    15   ar
    15    15    16   ar
    16    16    17   ar
    17     9    10   ar
    18    10    22    1
    19    22    24    1
    20    24    25   ar
    21    25    26   ar
    22    26    27   ar
    23    27    28   ar
    24    28    29   ar
    25    28    30    1
    26    30    31    1
    27    31    32    1
    28     7    11    1
    29    11     3    1
    30    10     6   ar
    31    29    24   ar
    32    17    12   ar
    33    32    27    1
    34    18    20    1
    35    18    21    1
    36    22    23    1
@<TRIPOS>MOLECULE
*****
 32 36 0 0 0
SMALL
GASTEIGER

@<TRIPOS>ATOM
      1 C         140.3806  141.0521  170.1656 C.2     1  UNL1        0.2419
      2 O         139.3547  140.0054  170.4849 O.2     1  UNL1       -0.2734
      3 N         141.0502  141.0610  168.8234 N.am    1  UNL1       -0.2694
      4 C         142.0761  142.1077  168.5040 C.3     1  UNL1        0.1184
      5 C         142.7457  142.1167  167.1618 C.3     1  UNL1        0.1299
      6 N         142.3896  141.0789  166.1390 N.ar    1  UNL1       -0.3005
      7 C         141.3637  140.0323  166.4584 C.ar    1  UNL1        0.1416
      8 N         141.2188  139.1438  165.2584 N.ar    1  UNL1       -0.2279
      9 C         142.1551  139.6415  164.1975 C.ar    1  UNL1        0.1125
     10 C         142.8787  140.8375  164.7417 C.ar    1  UNL1        0.1318
     11 C         140.6941  140.0233  167.8006 C.3     1  UNL1        0.1578
     12 C         142.3361  139.0475  162.8320 C.ar    1  UNL1        0.0204
     13 C         143.6325  138.3868  162.4674 C.ar    1  UNL1        0.0016
     14 C         143.8135  137.7928  161.1019 C.ar    1  UNL1        0.0000
     15 C         142.6982  137.8596  160.1012 C.ar    1  UNL1        0.0000
     16 C         141.4019  138.5203  160.4658 C.ar    1  UNL1        0.0000
     17 C         141.2208  139.1142  161.8312 C.ar    1  UNL1        0.0016
     18 N         142.0095  141.9646  171.9721 N.3     1  UNL1       -0.3135
     19 C         140.7367  142.0898  171.1884 C.3     1  UNL1        0.1517
     20 H         142.0906  142.7508  172.6169 H       1  UNL1        0.1193
     21 H         142.8042  141.9660  171.3326 H       1  UNL1        0.1193
     22 N         143.9102  141.6494  164.0160 N.pl3   1  UNL1       -0.2979
     23 H         144.8077  141.7651  164.4038 H       1  UNL1        0.1536
     24 C         143.5744  142.2851  162.6996 C.ar    1  UNL1        0.0526
     25 C         144.3082  141.8719  161.4583 C.ar    1  UNL1        0.0180
     26 C         143.9725  142.5076  160.1418 C.ar    1  UNL1        0.0415
     27 C         142.9029  143.5566  160.0666 C.ar    1  UNL1        0.1765
     28 C         142.1691  143.9699  161.3078 C.ar    1  UNL1        0.1777
     29 C         142.5049  143.3341  162.6244 C.ar    1  UNL1        0.0548
     30 O         141.1707  145.0226  160.9272 O.3     1  UNL1       -0.4346
     31 C         141.2875  145.2600  159.4508 C.3     1  UNL1        0.4294
     32 O         142.3580  144.3539  158.9188 O.3     1  UNL1       -0.4346
@<TRIPOS>BOND
     1    18    19    1
     2    19     1    1
     3     1     2    2
     4     1     3   am
     5     3     4    1
     6     4     5    1
     7     5     6    1
     8     6     7   ar
     9     7     8   ar
    10     8     9   ar
    11     9    12    1
    12    12    13   ar
    13    13    14   ar
    14    14    15   ar
    15    15    16   ar
    16    16    17   ar
    17     9    10   ar
    18    10    22    1
    19    22    24    1
    20    24    25   ar
    21    25    26   ar
    22    26    27   ar
    23    27    28   ar
    24    28    29   ar
    25    28    30    1
    26    30    31    1
    27    31    32    1
    28     7    11    1
    29    11     3    1
    30    10     6   ar
    31    29    24   ar
    32    17    12   ar
    33    32    27    1
    34    18    20    1
    35    18    21    1
    36    22    23    1
@<TRIPOS>MOLECULE
*****
 32 36 0 0 0
SMALL
GASTEIGER

@<TRIPOS>ATOM
      1 C         139.9514  144.8119  157.6603 C.2     1  UNL1        0.2419
      2 O         139.2174  144.0265  156.6143 O.2     1  UNL1       -0.2734
      3 N         140.0641  144.2780  159.0575 N.am    1  UNL1       -0.2694
      4 C         140.7982  145.0633  160.1036 C.3     1  UNL1        0.1184
      5 C         140.9109  144.5294  161.5008 C.3     1  UNL1        0.1299
      6 N         140.2896  143.2101  161.8520 N.ar    1  UNL1       -0.3005
      7 C         139.5555  142.4248  160.8059 C.ar    1  UNL1        0.1416
      8 N         139.0493  141.1644  161.4427 N.ar    1  UNL1       -0.2279
      9 C         139.4706  141.1709  162.8823 C.ar    1  UNL1        0.1125
     10 C         140.2371  142.4352  163.1352 C.ar    1  UNL1        0.1318
     11 C         139.4428  142.9587  159.4087 C.3     1  UNL1        0.1578
     12 C         139.1769  140.1009  163.8918 C.ar    1  UNL1        0.0204
     13 C         139.8212  138.7524  163.7643 C.ar    1  UNL1        0.0016
     14 C         139.5276  137.6824  164.7737 C.ar    1  UNL1        0.0000
     15 C         138.5896  137.9610  165.9106 C.ar    1  UNL1        0.0000
     16 C         137.9453  139.3096  166.0380 C.ar    1  UNL1        0.0000
     17 C         138.2389  140.3795  165.0286 C.ar    1  UNL1        0.0016
     18 N         139.7133  147.2577  156.8169 N.3     1  UNL1       -0.3135
     19 C         140.5728  146.1312  157.3092 C.3     1  UNL1        0.1517
     20 H         140.2967  148.0727  156.6276 H       1  UNL1        0.1193
     21 H         139.0210  147.4929  157.5280 H       1  UNL1        0.1193
     22 N         140.8445  142.8516  164.4420 N.pl3   1  UNL1       -0.2979
     23 H         140.8313  143.7984  164.7115 H       1  UNL1        0.1536
     24 C         141.4720  141.8254  165.3382 C.ar    1  UNL1        0.0526
     25 C         142.5407  140.9175  164.8056 C.ar    1  UNL1        0.0180
     26 C         143.1683  139.8913  165.7017 C.ar    1  UNL1        0.0415
     27 C         142.7272  139.7730  167.1305 C.ar    1  UNL1        0.1765
     28 C         141.6586  140.6809  167.6632 C.ar    1  UNL1        0.1777
     29 C         141.0309  141.7071  166.7670 C.ar    1  UNL1        0.0548
     30 O         141.4307  140.3330  169.1044 O.3     1  UNL1       -0.4346
     31 C         142.3586  139.2101  169.4624 C.3     1  UNL1        0.4294
     32 O         143.1599  138.8640  168.2425 O.3     1  UNL1       -0.4346
@<TRIPOS>BOND
     1    18    19    1
     2    19     1    1
     3     1     2    2
     4     1     3   am
     5     3     4    1
     6     4     5    1
     7     5     6    1
     8     6     7   ar
     9     7     8   ar
    10     8     9   ar
    11     9    12    1
    12    12    13   ar
    13    13    14   ar
    14    14    15   ar
    15    15    16   ar
    16    16    17   ar
    17     9    10   ar
    18    10    22    1
    19    22    24    1
    20    24    25   ar
    21    25    26   ar
    22    26    27   ar
    23    27    28   ar
    24    28    29   ar
    25    28    30    1
    26    30    31    1
    27    31    32    1
    28     7    11    1
    29    11     3    1
    30    10     6   ar
    31    29    24   ar
    32    17    12   ar
    33    32    27    1
    34    18    20    1
    35    18    21    1
    36    22    23    1
@<TRIPOS>MOLECULE
*****
 32 36 0 0 0
SMALL
GASTEIGER

@<TRIPOS>ATOM
      1 C         141.0062  138.2457  156.2918 C.2     1  UNL1        0.2419
      2 O         139.6587  138.4592  155.6685 O.2     1  UNL1       -0.2734
      3 N         141.1477  138.2284  157.7850 N.am    1  UNL1       -0.2694
      4 C         142.4952  138.0148  158.4083 C.3     1  UNL1        0.1184
      5 C         142.6366  137.9975  159.9015 C.3     1  UNL1        0.1299
      6 N         141.4305  138.1938  160.7714 N.ar    1  UNL1       -0.3005
      7 C         140.0830  138.4073  160.1481 C.ar    1  UNL1        0.1416
      8 N         139.0819  138.5716  161.2531 N.ar    1  UNL1       -0.2279
      9 C         139.8108  138.4595  162.5593 C.ar    1  UNL1        0.1125
     10 C         141.2623  138.2260  162.2616 C.ar    1  UNL1        0.1318
     11 C         139.9416  138.4246  158.6549 C.3     1  UNL1        0.1578
     12 C         139.1960  138.5628  163.9237 C.ar    1  UNL1        0.0204
     13 C         138.7966  139.9028  164.4669 C.ar    1  UNL1        0.0016
     14 C         138.1820  140.0061  165.8312 C.ar    1  UNL1        0.0000
     15 C         137.9667  138.7695  166.6524 C.ar    1  UNL1        0.0000
     16 C         138.3661  137.4296  166.1093 C.ar    1  UNL1        0.0000
     17 C         138.9808  137.3262  164.7449 C.ar    1  UNL1        0.0016
     18 N         142.2490  136.9213  154.4340 N.3     1  UNL1       -0.3135
     19 C         142.2123  138.0495  155.4219 C.3     1  UNL1        0.1517
     20 H         143.1367  136.9379  153.9318 H       1  UNL1        0.1193
     21 H         141.4811  137.0250  153.7708 H       1  UNL1        0.1193
     22 N         142.3539  138.0549  163.2760 N.pl3   1  UNL1       -0.2979
     23 H         142.9978  137.3155  163.1862 H       1  UNL1        0.1536
     24 C         142.4646  139.0101  164.4272 C.ar    1  UNL1        0.0526
     25 C         142.4629  140.4891  164.1773 C.ar    1  UNL1        0.0180
     26 C         142.5736  141.4444  165.3285 C.ar    1  UNL1        0.0415
     27 C         142.6860  140.9207  166.7296 C.ar    1  UNL1        0.1765
     28 C         142.6876  139.4417  166.9795 C.ar    1  UNL1        0.1777
     29 C         142.5769  138.4863  165.8283 C.ar    1  UNL1        0.0548
     30 O         142.8106  139.2215  168.4581 O.3     1  UNL1       -0.4346
     31 C         142.8850  140.5645  169.1221 C.3     1  UNL1        0.4294
     32 O         142.8079  141.6147  168.0537 O.3     1  UNL1       -0.4346
@<TRIPOS>BOND
     1    18    19    1
     2    19     1    1
     3     1     2    2
     4     1     3   am
     5     3     4    1
     6     4     5    1
     7     5     6    1
     8     6     7   ar
     9     7     8   ar
    10     8     9   ar
    11     9    12    1
    12    12    13   ar
    13    13    14   ar
    14    14    15   ar
    15    15    16   ar
    16    16    17   ar
    17     9    10   ar
    18    10    22    1
    19    22    24    1
    20    24    25   ar
    21    25    26   ar
    22    26    27   ar
    23    27    28   ar
    24    28    29   ar
    25    28    30    1
    26    30    31    1
    27    31    32    1
    28     7    11    1
    29    11     3    1
    30    10     6   ar
    31    29    24   ar
    32    17    12   ar
    33    32    27    1
    34    18    20    1
    35    18    21    1
    36    22    23    1
@<TRIPOS>MOLECULE
*****
 32 36 0 0 0
SMALL
GASTEIGER

@<TRIPOS>ATOM
      1 C         137.6858  142.5150  155.2293 C.2     1  UNL1        0.2419
      2 O         136.4413  141.6839  155.3312 O.2     1  UNL1       -0.2734
      3 N         138.3965  142.9570  156.4741 N.am    1  UNL1       -0.2694
      4 C         139.6410  143.7881  156.3722 C.3     1  UNL1        0.1184
      5 C         140.3518  144.2300  157.6170 C.3     1  UNL1        0.1299
      6 N         139.8180  143.8408  158.9637 N.ar    1  UNL1       -0.3005
      7 C         138.5735  143.0097  159.0656 C.ar    1  UNL1        0.1416
      8 N         138.2861  142.7818  160.5201 N.ar    1  UNL1       -0.2279
      9 C         139.3530  143.4721  161.3171 C.ar    1  UNL1        0.1125
     10 C         140.2997  144.1266  160.3552 C.ar    1  UNL1        0.1318
     11 C         137.8628  142.5678  157.8208 C.3     1  UNL1        0.1578
     12 C         139.4552  143.5025  162.8134 C.ar    1  UNL1        0.0204
     13 C         140.0628  142.3440  163.5473 C.ar    1  UNL1        0.0016
     14 C         140.1650  142.3744  165.0435 C.ar    1  UNL1        0.0000
     15 C         139.6596  143.5634  165.8057 C.ar    1  UNL1        0.0000
     16 C         139.0520  144.7219  165.0717 C.ar    1  UNL1        0.0000
     17 C         138.9498  144.6914  163.5756 C.ar    1  UNL1        0.0016
     18 N         137.5219  143.9587  153.0755 N.3     1  UNL1       -0.3135
     19 C         138.2195  142.9042  153.8826 C.3     1  UNL1        0.1517
     20 H         138.0172  144.0955  152.1943 H       1  UNL1        0.1193
     21 H         137.5098  144.8345  153.5982 H       1  UNL1        0.1193
     22 N         141.5149  144.9265  160.7206 N.pl3   1  UNL1       -0.2979
     23 H         141.6783  145.7973  160.2915 H       1  UNL1        0.1536
     24 C         142.4811  144.3996  161.7398 C.ar    1  UNL1        0.0526
     25 C         142.6098  145.0771  163.0719 C.ar    1  UNL1        0.0180
     26 C         143.5760  144.5503  164.0912 C.ar    1  UNL1        0.0415
     27 C         144.4135  143.3459  163.7784 C.ar    1  UNL1        0.1765
     28 C         144.2849  142.6682  162.4464 C.ar    1  UNL1        0.1777
     29 C         143.3186  143.1951  161.4271 C.ar    1  UNL1        0.0548
     30 O         145.2355  141.5082  162.4227 O.3     1  UNL1       -0.4346
     31 C         145.9517  141.4689  163.7401 C.3     1  UNL1        0.4294
     32 O         145.4437  142.6046  164.5780 O.3     1  UNL1       -0.4346
@<TRIPOS>BOND
     1    18    19    1
     2    19     1    1
     3     1     2    2
     4     1     3   am
     5     3     4    1
     6     4     5    1
     7     5     6    1
     8     6     7   ar
     9     7     8   ar
    10     8     9   ar
    11     9    12    1
    12    12    13   ar
    13    13    14   ar
    14    14    15   ar
    15    15    16   ar
    16    16    17   ar
    17     9    10   ar
    18    10    22    1
    19    22    24    1
    20    24    25   ar
    21    25    26   ar
    22    26    27   ar
    23    27    28   ar
    24    28    29   ar
    25    28    30    1
    26    30    31    1
    27    31    32    1
    28     7    11    1
    29    11     3    1
    30    10     6   ar
    31    29    24   ar
    32    17    12   ar
    33    32    27    1
    34    18    20    1
    35    18    21    1
    36    22    23    1
@<TRIPOS>MOLECULE
*****
 32 36 0 0 0
SMALL
GASTEIGER

@<TRIPOS>ATOM
      1 C         140.1368  140.6278  170.3321 C.2     1  UNL1        0.2419
      2 O         139.0388  139.7138  170.7893 O.2     1  UNL1       -0.2734
      3 N         140.3937  140.8168  168.8664 N.am    1  UNL1       -0.2694
      4 C         141.4917  141.7308  168.4091 C.3     1  UNL1        0.1184
      5 C         141.7486  141.9198  166.9434 C.3     1  UNL1        0.1299
      6 N         140.9076  141.1948  165.9350 N.ar    1  UNL1       -0.3005
      7 C         139.8097  140.2809  166.3922 C.ar    1  UNL1        0.1416
      8 N         139.1496  139.7040  165.1749 N.ar    1  UNL1       -0.2279
      9 C         139.8397  140.2616  163.9654 C.ar    1  UNL1        0.1125
     10 C         140.9262  141.1830  164.4351 C.ar    1  UNL1        0.1318
     11 C         139.5527  140.0919  167.8579 C.3     1  UNL1        0.1578
     12 C         139.5025  139.9521  162.5369 C.ar    1  UNL1        0.0204
     13 C         140.2463  138.8729  161.8075 C.ar    1  UNL1        0.0016
     14 C         139.9092  138.5634  160.3791 C.ar    1  UNL1        0.0000
     15 C         138.8281  139.3332  159.6800 C.ar    1  UNL1        0.0000
     16 C         138.0843  140.4124  160.4093 C.ar    1  UNL1        0.0000
     17 C         138.4214  140.7219  161.8378 C.ar    1  UNL1        0.0016
     18 N         142.2348  140.7216  171.8616 N.3     1  UNL1       -0.3135
     19 C         140.9778  141.3528  171.3405 C.3     1  UNL1        0.1517
     20 H         142.6770  141.3489  172.5334 H       1  UNL1        0.1193
     21 H         142.8746  140.5479  171.0864 H       1  UNL1        0.1193
     22 N         141.8662  141.9566  163.5589 N.pl3   1  UNL1       -0.2979
     23 H         142.8333  141.7759  163.5943 H       1  UNL1        0.1536
     24 C         141.3328  143.0055  162.6288 C.ar    1  UNL1        0.0526
     25 C         140.6436  144.2178  163.1816 C.ar    1  UNL1        0.0180
     26 C         140.1101  145.2668  162.2515 C.ar    1  UNL1        0.0415
     27 C         140.2658  145.1035  160.7686 C.ar    1  UNL1        0.1765
     28 C         140.9550  143.8913  160.2157 C.ar    1  UNL1        0.1777
     29 C         141.4884  142.8423  161.1459 C.ar    1  UNL1        0.0548
     30 O         140.9605  144.0031  158.7199 O.3     1  UNL1       -0.4346
     31 C         140.2748  145.2844  158.3483 C.3     1  UNL1        0.4294
     32 O         139.8454  145.9645  159.6145 O.3     1  UNL1       -0.4346
@<TRIPOS>BOND
     1    18    19    1
     2    19     1    1
     3     1     2    2
     4     1     3   am
     5     3     4    1
     6     4     5    1
     7     5     6    1
     8     6     7   ar
     9     7     8   ar
    10     8     9   ar
    11     9    12    1
    12    12    13   ar
    13    13    14   ar
    14    14    15   ar
    15    15    16   ar
    16    16    17   ar
    17     9    10   ar
    18    10    22    1
    19    22    24    1
    20    24    25   ar
    21    25    26   ar
    22    26    27   ar
    23    27    28   ar
    24    28    29   ar
    25    28    30    1
    26    30    31    1
    27    31    32    1
    28     7    11    1
    29    11     3    1
    30    10     6   ar
    31    29    24   ar
    32    17    12   ar
    33    32    27    1
    34    18    20    1
    35    18    21    1
    36    22    23    1
@<TRIPOS>MOLECULE
*****
 32 36 0 0 0
SMALL
GASTEIGER

@<TRIPOS>ATOM
      1 C         137.9854  139.9383  155.6540 C.2     1  UNL1        0.2419
      2 O         137.0356  140.9038  155.0092 O.2     1  UNL1       -0.2734
      3 N         138.4579  140.1753  157.0577 N.am    1  UNL1       -0.2694
      4 C         139.4076  139.2099  157.7025 C.3     1  UNL1        0.1184
      5 C         139.8801  139.4469  159.1063 C.3     1  UNL1        0.1299
      6 N         139.4029  140.6494  159.8653 N.ar    1  UNL1       -0.3005
      7 C         138.4531  141.6148  159.2205 C.ar    1  UNL1        0.1416
      8 N         138.1569  142.7037  160.2089 N.ar    1  UNL1       -0.2279
      9 C         138.9237  142.4111  161.4644 C.ar    1  UNL1        0.1125
     10 C         139.6937  141.1415  161.2521 C.ar    1  UNL1        0.1318
     11 C         137.9806  141.3778  157.8168 C.3     1  UNL1        0.1578
     12 C         138.9209  143.2423  162.7132 C.ar    1  UNL1        0.0204
     13 C         140.1267  144.0586  163.0734 C.ar    1  UNL1        0.0016
     14 C         140.1240  144.8897  164.3221 C.ar    1  UNL1        0.0000
     15 C         138.9155  144.9044  165.2105 C.ar    1  UNL1        0.0000
     16 C         137.7098  144.0881  164.8503 C.ar    1  UNL1        0.0000
     17 C         137.7125  143.2570  163.6016 C.ar    1  UNL1        0.0016
     18 N         137.8103  137.4030  155.1141 N.3     1  UNL1       -0.3135
     19 C         138.4626  138.7358  154.8949 C.3     1  UNL1        0.1517
     20 H         138.2572  136.7040  154.5208 H       1  UNL1        0.1193
     21 H         136.8200  137.4663  154.8782 H       1  UNL1        0.1193
     22 N         140.5961  140.4800  162.2511 N.pl3   1  UNL1       -0.2979
     23 H         141.5332  140.2891  162.0173 H       1  UNL1        0.1536
     24 C         140.0709  140.1095  163.6064 C.ar    1  UNL1        0.0526
     25 C         139.0140  139.0532  163.7381 C.ar    1  UNL1        0.0180
     26 C         138.4887  138.6826  165.0933 C.ar    1  UNL1        0.0415
     27 C         139.0203  139.3682  166.3169 C.ar    1  UNL1        0.1765
     28 C         140.0772  140.4245  166.1853 C.ar    1  UNL1        0.1777
     29 C         140.6025  140.7951  164.8300 C.ar    1  UNL1        0.0548
     30 O         140.4072  140.9239  167.5607 O.3     1  UNL1       -0.4346
     31 C         139.5543  140.1762  168.5423 C.3     1  UNL1        0.4294
     32 O         138.6971  139.2148  167.7737 O.3     1  UNL1       -0.4346
@<TRIPOS>BOND
     1    18    19    1
     2    19     1    1
     3     1     2    2
     4     1     3   am
     5     3     4    1
     6     4     5    1
     7     5     6    1
     8     6     7   ar
     9     7     8   ar
    10     8     9   ar
    11     9    12    1
    12    12    13   ar
    13    13    14   ar
    14    14    15   ar
    15    15    16   ar
    16    16    17   ar
    17     9    10   ar
    18    10    22    1
    19    22    24    1
    20    24    25   ar
    21    25    26   ar
    22    26    27   ar
    23    27    28   ar
    24    28    29   ar
    25    28    30    1
    26    30    31    1
    27    31    32    1
    28     7    11    1
    29    11     3    1
    30    10     6   ar
    31    29    24   ar
    32    17    12   ar
    33    32    27    1
    34    18    20    1
    35    18    21    1
    36    22    23    1
