@<TRIPOS>MOLECULE
*****
 32 35 0 0 0
SMALL
GASTEIGER

@<TRIPOS>ATOM
      1 C         141.9635  141.2366  164.4972 C.ar    1  UNL1        0.1511
      2 C         141.9461  142.6759  164.9193 C.ar    1  UNL1        0.0688
      3 C         141.8292  143.7586  163.8877 C.ar    1  UNL1        0.1620
      4 F         141.8118  145.1979  164.3097 F       1  UNL1       -0.2026
      5 C         141.7298  143.4020  162.4341 C.ar    1  UNL1        0.1535
      6 C         141.7472  141.9627  162.0121 C.ar    1  UNL1        0.0369
      7 C         141.8641  140.8800  163.0437 C.ar    1  UNL1        0.0930
      8 CL        141.8815  139.4407  162.6216 Cl      1  UNL1       -0.0790
      9 S         141.6130  144.4846  161.4025 S.O2    1  UNL1        0.0769
     10 O         140.2115  144.7664  161.8570 O.2     1  UNL1       -0.1498
     11 O         143.0144  144.2029  160.9480 O.2     1  UNL1       -0.1498
     12 N         141.4961  145.5673  160.3709 N.pl3   1  UNL1       -0.1987
     13 H         141.5129  146.5126  160.6454 H       1  UNL1        0.1753
     14 C         141.3537  145.2097  158.9211 C.ar    1  UNL1        0.1503
     15 C         140.3477  144.1808  158.4978 C.ar    1  UNL1        0.0563
     16 C         140.2053  143.8232  157.0480 C.ar    1  UNL1        0.1036
     17 N         141.0691  144.4945  156.0216 N.ar    1  UNL1       -0.2223
     18 C         142.0751  145.5233  156.4450 C.ar    1  UNL1        0.2001
     19 N         142.2174  145.8809  157.8948 N.ar    1  UNL1       -0.2077
     20 O         142.0803  140.1539  165.5288 O.3     1  UNL1       -0.4779
     21 C         139.7555  139.6255  166.5613 C.3     1  UNL1        0.0799
     22 C         138.8314  139.6124  167.7427 C.3     1  UNL1        0.0095
     23 C         139.3081  140.1148  169.0733 C.3     1  UNL1        0.0006
     24 C         140.7088  140.6301  169.2224 C.3     1  UNL1        0.0037
     25 C         141.6329  140.6432  168.0409 C.3     1  UNL1        0.0439
     26 C         141.1562  140.1409  166.7104 C.3     1  UNL1        0.1713
     27 C         138.2017  141.3824  164.2921 C.3     1  UNL1        0.1533
     28 N         138.5646  139.9307  164.1877 N.ar    1  UNL1       -0.2527
     29 N         138.2771  139.0317  163.0219 N.ar    1  UNL1       -0.1679
     30 C         138.8135  137.6685  163.3443 C.ar    1  UNL1        0.1213
     31 C         139.4326  137.7251  164.7094 C.ar    1  UNL1        0.0369
     32 C         139.2788  139.1232  165.2306 C.ar    1  UNL1        0.0603
@<TRIPOS>BOND
     1    27    28    1
     2    28    29   ar
     3    29    30   ar
     4    30    31   ar
     5    31    32   ar
     6    21    32    1
     7    21    22    1
     8    22    23    1
     9    23    24    1
    10    24    25    1
    11    25    26    1
    12    26    20    1
    13    20     1    1
    14     1     2   ar
    15     2     3   ar
    16     3     4    1
    17     3     5   ar
    18     5     9    1
    19     9    10    2
    20     9    11    2
    21     9    12    1
    22    12    14    1
    23    14    15   ar
    24    15    16   ar
    25    16    17   ar
    26    17    18   ar
    27    18    19   ar
    28     5     6   ar
    29     6     7   ar
    30     7     8    1
    31    32    28   ar
    32    26    21    1
    33     7     1   ar
    34    19    14   ar
    35    12    13    1
@<TRIPOS>MOLECULE
*****
 32 35 0 0 0
SMALL
GASTEIGER

@<TRIPOS>ATOM
      1 C         139.9293  141.0792  165.0557 C.ar    1  UNL1        0.1511
      2 C         139.6668  142.4941  165.4792 C.ar    1  UNL1        0.0688
      3 C         139.8656  143.6175  164.5053 C.ar    1  UNL1        0.1620
      4 F         139.6031  145.0324  164.9287 F       1  UNL1       -0.2026
      5 C         140.3269  143.3261  163.1081 C.ar    1  UNL1        0.1535
      6 C         140.5894  141.9113  162.6847 C.ar    1  UNL1        0.0369
      7 C         140.3906  140.7878  163.6585 C.ar    1  UNL1        0.0930
      8 CL        140.6532  139.3729  163.2350 Cl      1  UNL1       -0.0790
      9 S         140.5257  144.4496  162.1342 S.O2    1  UNL1        0.0769
     10 O         141.8804  144.7176  162.7200 O.2     1  UNL1       -0.1498
     11 O         139.1711  144.1815  161.5485 O.2     1  UNL1       -0.1498
     12 N         140.7245  145.5730  161.1604 N.pl3   1  UNL1       -0.1987
     13 H         140.6085  146.5055  161.4542 H       1  UNL1        0.1753
     14 C         141.1002  145.2758  159.7389 C.ar    1  UNL1        0.1503
     15 C         140.2591  145.8039  158.6148 C.ar    1  UNL1        0.0563
     16 C         140.6348  145.5067  157.1934 C.ar    1  UNL1        0.1036
     17 N         141.8515  144.6812  156.8961 N.ar    1  UNL1       -0.2223
     18 C         142.6925  144.1531  158.0202 C.ar    1  UNL1        0.2001
     19 N         142.3168  144.4504  159.4416 N.ar    1  UNL1       -0.2077
     20 O         139.7305  139.9557  166.0295 O.3     1  UNL1       -0.4779
     21 C         141.7981  140.0133  167.6017 C.3     1  UNL1        0.0799
     22 C         142.3785  140.1056  168.9818 C.3     1  UNL1        0.0095
     23 C         141.4716  140.2325  170.1698 C.3     1  UNL1        0.0006
     24 C         139.9844  140.2671  169.9777 C.3     1  UNL1        0.0037
     25 C         139.4040  140.1749  168.5977 C.3     1  UNL1        0.0439
     26 C         140.3109  140.0480  167.4097 C.3     1  UNL1        0.1713
     27 C         143.2945  142.4695  166.0596 C.3     1  UNL1        0.1533
     28 N         143.3928  141.0153  165.7048 N.ar    1  UNL1       -0.2527
     29 N         144.1962  140.4349  164.5789 N.ar    1  UNL1       -0.1679
     30 C         144.0049  138.9472  164.5918 C.ar    1  UNL1        0.1213
     31 C         143.0833  138.6082  165.7257 C.ar    1  UNL1        0.0369
     32 C         142.7050  139.8864  166.4136 C.ar    1  UNL1        0.0603
@<TRIPOS>BOND
     1    27    28    1
     2    28    29   ar
     3    29    30   ar
     4    30    31   ar
     5    31    32   ar
     6    21    32    1
     7    21    22    1
     8    22    23    1
     9    23    24    1
    10    24    25    1
    11    25    26    1
    12    26    20    1
    13    20     1    1
    14     1     2   ar
    15     2     3   ar
    16     3     4    1
    17     3     5   ar
    18     5     9    1
    19     9    10    2
    20     9    11    2
    21     9    12    1
    22    12    14    1
    23    14    15   ar
    24    15    16   ar
    25    16    17   ar
    26    17    18   ar
    27    18    19   ar
    28     5     6   ar
    29     6     7   ar
    30     7     8    1
    31    32    28   ar
    32    26    21    1
    33     7     1   ar
    34    19    14   ar
    35    12    13    1
@<TRIPOS>MOLECULE
*****
 32 35 0 0 0
SMALL
GASTEIGER

@<TRIPOS>ATOM
      1 C         139.8015  142.7399  164.6121 C.ar    1  UNL1        0.1511
      2 C         140.6485  143.9741  164.7094 C.ar    1  UNL1        0.0688
      3 C         141.0762  144.6904  163.4628 C.ar    1  UNL1        0.1620
      4 F         141.9231  145.9246  163.5601 F       1  UNL1       -0.2026
      5 C         140.6568  144.1725  162.1189 C.ar    1  UNL1        0.1535
      6 C         139.8099  142.9383  162.0217 C.ar    1  UNL1        0.0369
      7 C         139.3822  142.2220  163.2683 C.ar    1  UNL1        0.0930
      8 CL        138.5352  140.9878  163.1710 Cl      1  UNL1       -0.0790
      9 S         141.0845  144.8888  160.8723 S.O2    1  UNL1        0.0769
     10 O         139.7094  145.4725  160.7360 O.2     1  UNL1       -0.1498
     11 O         142.4595  144.3051  161.0087 O.2     1  UNL1       -0.1498
     12 N         141.5121  145.6051  159.6257 N.pl3   1  UNL1       -0.1987
     13 H         142.2001  146.3077  159.6732 H       1  UNL1        0.1753
     14 C         140.8915  145.2509  158.3068 C.ar    1  UNL1        0.1503
     15 C         140.9267  143.8332  157.8181 C.ar    1  UNL1        0.0563
     16 C         140.3061  143.4790  156.4992 C.ar    1  UNL1        0.1036
     17 N         139.6503  144.5425  155.6692 N.ar    1  UNL1       -0.2223
     18 C         139.6152  145.9602  156.1579 C.ar    1  UNL1        0.2001
     19 N         140.2358  146.3143  157.4768 N.ar    1  UNL1       -0.2077
     20 O         139.3738  142.0236  165.8587 O.3     1  UNL1       -0.4779
     21 C         140.9092  140.1432  166.7844 C.3     1  UNL1        0.0799
     22 C         141.9379  139.6733  167.7697 C.3     1  UNL1        0.0095
     23 C         142.4600  140.6141  168.8149 C.3     1  UNL1        0.0006
     24 C         141.9534  142.0247  168.8747 C.3     1  UNL1        0.0037
     25 C         140.9247  142.4945  167.8893 C.3     1  UNL1        0.0439
     26 C         140.4026  141.5538  166.8442 C.3     1  UNL1        0.1713
     27 C         137.9633  138.7392  166.7667 C.3     1  UNL1        0.1533
     28 N         139.0330  138.5571  165.7311 N.ar    1  UNL1       -0.2527
     29 N         138.9364  137.6977  164.5055 N.ar    1  UNL1       -0.1679
     30 C         140.2309  137.8119  163.7561 C.ar    1  UNL1        0.1213
     31 C         141.1274  138.7418  164.5186 C.ar    1  UNL1        0.0369
     32 C         140.3871  139.2024  165.7392 C.ar    1  UNL1        0.0603
@<TRIPOS>BOND
     1    27    28    1
     2    28    29   ar
     3    29    30   ar
     4    30    31   ar
     5    31    32   ar
     6    21    32    1
     7    21    22    1
     8    22    23    1
     9    23    24    1
    10    24    25    1
    11    25    26    1
    12    26    20    1
    13    20     1    1
    14     1     2   ar
    15     2     3   ar
    16     3     4    1
    17     3     5   ar
    18     5     9    1
    19     9    10    2
    20     9    11    2
    21     9    12    1
    22    12    14    1
    23    14    15   ar
    24    15    16   ar
    25    16    17   ar
    26    17    18   ar
    27    18    19   ar
    28     5     6   ar
    29     6     7   ar
    30     7     8    1
    31    32    28   ar
    32    26    21    1
    33     7     1   ar
    34    19    14   ar
    35    12    13    1
@<TRIPOS>MOLECULE
*****
 32 35 0 0 0
SMALL
GASTEIGER

@<TRIPOS>ATOM
      1 C         141.6497  141.4571  164.7469 C.ar    1  UNL1        0.1511
      2 C         141.4412  142.9090  165.0608 C.ar    1  UNL1        0.0688
      3 C         141.4240  143.9208  163.9536 C.ar    1  UNL1        0.1620
      4 F         141.2155  145.3727  164.2675 F       1  UNL1       -0.2026
      5 C         141.6153  143.4807  162.5324 C.ar    1  UNL1        0.1535
      6 C         141.8238  142.0288  162.2185 C.ar    1  UNL1        0.0369
      7 C         141.8410  141.0170  163.3257 C.ar    1  UNL1        0.0930
      8 CL        142.0496  139.5651  163.0118 Cl      1  UNL1       -0.0790
      9 S         141.5981  144.4925  161.4251 S.O2    1  UNL1        0.0769
     10 O         140.1235  144.6833  161.6224 O.2     1  UNL1       -0.1498
     11 O         143.0728  144.3016  161.2278 O.2     1  UNL1       -0.1498
     12 N         141.5810  145.5042  160.3179 N.pl3   1  UNL1       -0.1987
     13 H         141.5879  146.4657  160.5295 H       1  UNL1        0.1753
     14 C         141.5531  145.0511  158.8882 C.ar    1  UNL1        0.1503
     15 C         140.8389  143.7856  158.5163 C.ar    1  UNL1        0.0563
     16 C         140.8111  143.3325  157.0867 C.ar    1  UNL1        0.1036
     17 N         141.4976  144.1449  156.0289 N.ar    1  UNL1       -0.2223
     18 C         142.2118  145.4104  156.4008 C.ar    1  UNL1        0.2001
     19 N         142.2396  145.8635  157.8304 N.ar    1  UNL1       -0.2077
     20 O         141.6669  140.4453  165.8541 O.3     1  UNL1       -0.4779
     21 C         139.8904  140.1832  167.7318 C.3     1  UNL1        0.0799
     22 C         138.6039  139.5945  168.2298 C.3     1  UNL1        0.0095
     23 C         137.8071  138.6792  167.3482 C.3     1  UNL1        0.0006
     24 C         138.2969  138.3526  165.9686 C.3     1  UNL1        0.0037
     25 C         139.5834  138.9413  165.4705 C.3     1  UNL1        0.0439
     26 C         140.3802  139.8566  166.3521 C.3     1  UNL1        0.1713
     27 C         142.2514  139.2825  169.7968 C.3     1  UNL1        0.1533
     28 N         141.7725  140.6845  169.5626 N.ar    1  UNL1       -0.2527
     29 N         142.2947  141.9187  170.2364 N.ar    1  UNL1       -0.1679
     30 C         141.5323  143.0956  169.7036 C.ar    1  UNL1        0.1213
     31 C         140.5389  142.5887  168.7006 C.ar    1  UNL1        0.0369
     32 C         140.6873  141.0986  168.6134 C.ar    1  UNL1        0.0603
@<TRIPOS>BOND
     1    27    28    1
     2    28    29   ar
     3    29    30   ar
     4    30    31   ar
     5    31    32   ar
     6    21    32    1
     7    21    22    1
     8    22    23    1
     9    23    24    1
    10    24    25    1
    11    25    26    1
    12    26    20    1
    13    20     1    1
    14     1     2   ar
    15     2     3   ar
    16     3     4    1
    17     3     5   ar
    18     5     9    1
    19     9    10    2
    20     9    11    2
    21     9    12    1
    22    12    14    1
    23    14    15   ar
    24    15    16   ar
    25    16    17   ar
    26    17    18   ar
    27    18    19   ar
    28     5     6   ar
    29     6     7   ar
    30     7     8    1
    31    32    28   ar
    32    26    21    1
    33     7     1   ar
    34    19    14   ar
    35    12    13    1
@<TRIPOS>MOLECULE
*****
 32 35 0 0 0
SMALL
GASTEIGER

@<TRIPOS>ATOM
      1 C         141.5060  142.9145  165.5767 C.ar    1  UNL1        0.1511
      2 C         140.1691  143.5865  165.4704 C.ar    1  UNL1        0.0688
      3 C         139.6767  144.0704  164.1387 C.ar    1  UNL1        0.1620
      4 F         138.3399  144.7423  164.0324 F       1  UNL1       -0.2026
      5 C         140.5212  143.8822  162.9133 C.ar    1  UNL1        0.1535
      6 C         141.8580  143.2103  163.0196 C.ar    1  UNL1        0.0369
      7 C         142.3504  142.7264  164.3513 C.ar    1  UNL1        0.0930
      8 CL        143.6873  142.0544  164.4576 Cl      1  UNL1       -0.0790
      9 S         140.0288  144.3661  161.5816 S.O2    1  UNL1        0.0769
     10 O         140.6192  145.7177  161.8544 O.2     1  UNL1       -0.1498
     11 O         139.4383  143.0144  161.3088 O.2     1  UNL1       -0.1498
     12 N         139.5363  144.8499  160.2499 N.pl3   1  UNL1       -0.1987
     13 H         138.5940  145.1126  160.1394 H       1  UNL1        0.1753
     14 C         140.4797  144.9336  159.0867 C.ar    1  UNL1        0.1503
     15 C         140.2077  145.8951  157.9681 C.ar    1  UNL1        0.0563
     16 C         141.1511  145.9788  156.8049 C.ar    1  UNL1        0.1036
     17 N         142.3665  145.1008  156.7604 N.ar    1  UNL1       -0.2223
     18 C         142.6385  144.1393  157.8790 C.ar    1  UNL1        0.2001
     19 N         141.6952  144.0557  159.0422 N.ar    1  UNL1       -0.2077
     20 O         141.9985  142.4307  166.9084 O.3     1  UNL1       -0.4779
     21 C         140.3964  140.5353  167.6772 C.3     1  UNL1        0.0799
     22 C         139.4274  139.9797  168.6784 C.3     1  UNL1        0.0095
     23 C         139.0915  140.7641  169.9120 C.3     1  UNL1        0.0006
     24 C         139.7245  142.1039  170.1445 C.3     1  UNL1        0.0037
     25 C         140.6935  142.6595  169.1433 C.3     1  UNL1        0.0439
     26 C         141.0294  141.8751  167.9097 C.3     1  UNL1        0.1713
     27 C         138.4701  140.1373  165.0732 C.3     1  UNL1        0.1533
     28 N         139.8469  139.5680  165.2466 N.ar    1  UNL1       -0.2527
     29 N         140.5801  138.7159  164.2535 N.ar    1  UNL1       -0.1679
     30 C         141.9188  138.3721  164.8366 C.ar    1  UNL1        0.1213
     31 C         142.0128  139.0118  166.1901 C.ar    1  UNL1        0.0369
     32 C         140.7324  139.7509  166.4435 C.ar    1  UNL1        0.0603
@<TRIPOS>BOND
     1    27    28    1
     2    28    29   ar
     3    29    30   ar
     4    30    31   ar
     5    31    32   ar
     6    21    32    1
     7    21    22    1
     8    22    23    1
     9    23    24    1
    10    24    25    1
    11    25    26    1
    12    26    20    1
    13    20     1    1
    14     1     2   ar
    15     2     3   ar
    16     3     4    1
    17     3     5   ar
    18     5     9    1
    19     9    10    2
    20     9    11    2
    21     9    12    1
    22    12    14    1
    23    14    15   ar
    24    15    16   ar
    25    16    17   ar
    26    17    18   ar
    27    18    19   ar
    28     5     6   ar
    29     6     7   ar
    30     7     8    1
    31    32    28   ar
    32    26    21    1
    33     7     1   ar
    34    19    14   ar
    35    12    13    1
@<TRIPOS>MOLECULE
*****
 32 35 0 0 0
SMALL
GASTEIGER

@<TRIPOS>ATOM
      1 C         139.6220  141.4542  165.8755 C.ar    1  UNL1        0.1511
      2 C         139.4350  142.9097  165.5645 C.ar    1  UNL1        0.0688
      3 C         139.2683  143.3573  164.1426 C.ar    1  UNL1        0.1620
      4 F         139.0814  144.8127  163.8315 F       1  UNL1       -0.2026
      5 C         139.2886  142.3495  163.0317 C.ar    1  UNL1        0.1535
      6 C         139.4755  140.8941  163.3428 C.ar    1  UNL1        0.0369
      7 C         139.6422  140.4464  164.7647 C.ar    1  UNL1        0.0930
      8 CL        139.8292  138.9909  165.0757 Cl      1  UNL1       -0.0790
      9 S         139.1219  142.7972  161.6098 S.O2    1  UNL1        0.0769
     10 O         137.6433  142.5656  161.7103 O.2     1  UNL1       -0.1498
     11 O         140.6005  143.0287  161.5094 O.2     1  UNL1       -0.1498
     12 N         138.9552  143.2448  160.1879 N.pl3   1  UNL1       -0.1987
     13 H         139.0424  144.1983  159.9586 H       1  UNL1        0.1753
     14 C         138.6555  142.2398  159.1154 C.ar    1  UNL1        0.1503
     15 C         139.2590  140.8683  159.1831 C.ar    1  UNL1        0.0563
     16 C         138.9593  139.8633  158.1106 C.ar    1  UNL1        0.1036
     17 N         138.0560  140.2299  156.9706 N.ar    1  UNL1       -0.2223
     18 C         137.4525  141.6014  156.9029 C.ar    1  UNL1        0.2001
     19 N         137.7522  142.6063  157.9754 N.ar    1  UNL1       -0.2077
     20 O         139.7887  141.0065  167.2974 O.3     1  UNL1       -0.4779
     21 C         142.2248  141.4403  168.0895 C.3     1  UNL1        0.0799
     22 C         143.1907  142.1505  168.9910 C.3     1  UNL1        0.0095
     23 C         142.6863  143.1371  170.0020 C.3     1  UNL1        0.0006
     24 C         141.2160  143.4136  170.1115 C.3     1  UNL1        0.0037
     25 C         140.2502  142.7034  169.2100 C.3     1  UNL1        0.0439
     26 C         140.7546  141.7167  168.1990 C.3     1  UNL1        0.1713
     27 C         143.1486  142.1256  165.0355 C.3     1  UNL1        0.1533
     28 N         143.1538  140.7686  165.6747 N.ar    1  UNL1       -0.2527
     29 N         143.5845  139.4884  165.0224 N.ar    1  UNL1       -0.1679
     30 C         143.4261  138.3821  166.0230 C.ar    1  UNL1        0.1213
     31 C         142.8975  138.9787  167.2937 C.ar    1  UNL1        0.0369
     32 C         142.7292  140.4536  167.0785 C.ar    1  UNL1        0.0603
@<TRIPOS>BOND
     1    27    28    1
     2    28    29   ar
     3    29    30   ar
     4    30    31   ar
     5    31    32   ar
     6    21    32    1
     7    21    22    1
     8    22    23    1
     9    23    24    1
    10    24    25    1
    11    25    26    1
    12    26    20    1
    13    20     1    1
    14     1     2   ar
    15     2     3   ar
    16     3     4    1
    17     3     5   ar
    18     5     9    1
    19     9    10    2
    20     9    11    2
    21     9    12    1
    22    12    14    1
    23    14    15   ar
    24    15    16   ar
    25    16    17   ar
    26    17    18   ar
    27    18    19   ar
    28     5     6   ar
    29     6     7   ar
    30     7     8    1
    31    32    28   ar
    32    26    21    1
    33     7     1   ar
    34    19    14   ar
    35    12    13    1
@<TRIPOS>MOLECULE
*****
 32 35 0 0 0
SMALL
GASTEIGER

@<TRIPOS>ATOM
      1 C         140.3680  141.9460  164.7770 C.ar    1  UNL1        0.1511
      2 C         139.0022  142.4356  164.3963 C.ar    1  UNL1        0.0688
      3 C         138.8399  143.3890  163.2497 C.ar    1  UNL1        0.1620
      4 F         137.4742  143.8786  162.8689 F       1  UNL1       -0.2026
      5 C         140.0435  143.8528  162.4839 C.ar    1  UNL1        0.1535
      6 C         141.4092  143.3633  162.8647 C.ar    1  UNL1        0.0369
      7 C         141.5715  142.4099  164.0112 C.ar    1  UNL1        0.0930
      8 CL        142.9373  141.9203  164.3920 Cl      1  UNL1       -0.0790
      9 S         139.8812  144.8062  161.3373 S.O2    1  UNL1        0.0769
     10 O         139.1778  143.7403  160.5505 O.2     1  UNL1       -0.1498
     11 O         140.5846  145.8722  162.1240 O.2     1  UNL1       -0.1498
     12 N         139.7189  145.7597  160.1907 N.pl3   1  UNL1       -0.1987
     13 H         139.0903  146.5139  160.2628 H       1  UNL1        0.1753
     14 C         140.5144  145.5638  158.9341 C.ar    1  UNL1        0.1503
     15 C         141.7425  144.7027  158.9504 C.ar    1  UNL1        0.0563
     16 C         142.5379  144.5069  157.6938 C.ar    1  UNL1        0.1036
     17 N         142.1052  145.1722  156.4210 N.ar    1  UNL1       -0.2223
     18 C         140.8772  146.0333  156.4047 C.ar    1  UNL1        0.2001
     19 N         140.0818  146.2291  157.6612 N.ar    1  UNL1       -0.2077
     20 O         140.5303  140.9926  165.9236 O.3     1  UNL1       -0.4779
     21 C         139.9934  138.5894  165.0951 C.3     1  UNL1        0.0799
     22 C         139.1526  137.3491  165.1638 C.3     1  UNL1        0.0095
     23 C         138.0079  137.2717  166.1300 C.3     1  UNL1        0.0006
     24 C         137.7039  138.4346  167.0274 C.3     1  UNL1        0.0037
     25 C         138.5447  139.6749  166.9586 C.3     1  UNL1        0.0439
     26 C         139.6894  139.7523  165.9925 C.3     1  UNL1        0.1713
     27 C         143.1535  138.2455  165.8336 C.3     1  UNL1        0.1533
     28 N         142.5907  138.5088  164.4684 N.ar    1  UNL1       -0.2527
     29 N         143.3817  138.6602  163.2029 N.ar    1  UNL1       -0.1679
     30 C         142.4180  138.9118  162.0812 C.ar    1  UNL1        0.1213
     31 C         141.0315  138.9159  162.6535 C.ar    1  UNL1        0.0369
     32 C         141.1382  138.6668  164.1289 C.ar    1  UNL1        0.0603
@<TRIPOS>BOND
     1    27    28    1
     2    28    29   ar
     3    29    30   ar
     4    30    31   ar
     5    31    32   ar
     6    21    32    1
     7    21    22    1
     8    22    23    1
     9    23    24    1
    10    24    25    1
    11    25    26    1
    12    26    20    1
    13    20     1    1
    14     1     2   ar
    15     2     3   ar
    16     3     4    1
    17     3     5   ar
    18     5     9    1
    19     9    10    2
    20     9    11    2
    21     9    12    1
    22    12    14    1
    23    14    15   ar
    24    15    16   ar
    25    16    17   ar
    26    17    18   ar
    27    18    19   ar
    28     5     6   ar
    29     6     7   ar
    30     7     8    1
    31    32    28   ar
    32    26    21    1
    33     7     1   ar
    34    19    14   ar
    35    12    13    1
@<TRIPOS>MOLECULE
*****
 32 35 0 0 0
SMALL
GASTEIGER

@<TRIPOS>ATOM
      1 C         139.5572  141.9841  164.9589 C.ar    1  UNL1        0.1511
      2 C         140.4464  143.1669  165.2047 C.ar    1  UNL1        0.0688
      3 C         140.7269  144.1376  164.0960 C.ar    1  UNL1        0.1620
      4 F         141.6160  145.3204  164.3418 F       1  UNL1       -0.2026
      5 C         140.1182  143.9253  162.7415 C.ar    1  UNL1        0.1535
      6 C         139.2291  142.7426  162.4958 C.ar    1  UNL1        0.0369
      7 C         138.9486  141.7719  163.6045 C.ar    1  UNL1        0.0930
      8 CL        138.0595  140.5891  163.3587 Cl      1  UNL1       -0.0790
      9 S         140.3987  144.8960  161.6329 S.O2    1  UNL1        0.0769
     10 O         139.0428  145.5078  161.8254 O.2     1  UNL1       -0.1498
     11 O         141.7547  144.2842  161.4403 O.2     1  UNL1       -0.1498
     12 N         140.6792  145.8666  160.5242 N.pl3   1  UNL1       -0.1987
     13 H         140.7317  146.8309  160.7156 H       1  UNL1        0.1753
     14 C         140.8798  145.3680  159.1237 C.ar    1  UNL1        0.1503
     15 C         139.9362  144.3554  158.5457 C.ar    1  UNL1        0.0563
     16 C         140.1369  143.8568  157.1453 C.ar    1  UNL1        0.1036
     17 N         141.2811  144.3709  156.3229 N.ar    1  UNL1       -0.2223
     18 C         142.2247  145.3835  156.9009 C.ar    1  UNL1        0.2001
     19 N         142.0241  145.8821  158.3013 N.ar    1  UNL1       -0.2077
     20 O         139.2768  141.0135  166.0676 O.3     1  UNL1       -0.4779
     21 C         141.3915  139.5700  166.5083 C.3     1  UNL1        0.0799
     22 C         142.4991  139.1330  167.4206 C.3     1  UNL1        0.0095
     23 C         142.5995  139.7025  168.8046 C.3     1  UNL1        0.0006
     24 C         141.5923  140.7091  169.2763 C.3     1  UNL1        0.0037
     25 C         140.4848  141.1460  168.3640 C.3     1  UNL1        0.0439
     26 C         140.3844  140.5765  166.9800 C.3     1  UNL1        0.1713
     27 C         142.8951  140.7164  163.8484 C.3     1  UNL1        0.1533
     28 N         141.9822  139.5273  163.9016 N.ar    1  UNL1       -0.2527
     29 N         141.6001  138.6565  162.7416 N.ar    1  UNL1       -0.1679
     30 C         140.6728  137.5913  163.2473 C.ar    1  UNL1        0.1213
     31 C         140.4819  137.8039  164.7198 C.ar    1  UNL1        0.0369
     32 C         141.2911  139.0004  165.1242 C.ar    1  UNL1        0.0603
@<TRIPOS>BOND
     1    27    28    1
     2    28    29   ar
     3    29    30   ar
     4    30    31   ar
     5    31    32   ar
     6    21    32    1
     7    21    22    1
     8    22    23    1
     9    23    24    1
    10    24    25    1
    11    25    26    1
    12    26    20    1
    13    20     1    1
    14     1     2   ar
    15     2     3   ar
    16     3     4    1
    17     3     5   ar
    18     5     9    1
    19     9    10    2
    20     9    11    2
    21     9    12    1
    22    12    14    1
    23    14    15   ar
    24    15    16   ar
    25    16    17   ar
    26    17    18   ar
    27    18    19   ar
    28     5     6   ar
    29     6     7   ar
    30     7     8    1
    31    32    28   ar
    32    26    21    1
    33     7     1   ar
    34    19    14   ar
    35    12    13    1
@<TRIPOS>MOLECULE
*****
 32 35 0 0 0
SMALL
GASTEIGER

@<TRIPOS>ATOM
      1 C         141.2040  142.8817  164.7986 C.ar    1  UNL1        0.1511
      2 C         142.3417  143.8181  164.5177 C.ar    1  UNL1        0.0688
      3 C         142.4420  144.4974  163.1841 C.ar    1  UNL1        0.1620
      4 F         143.5796  145.4339  162.9031 F       1  UNL1       -0.2026
      5 C         141.4048  144.2403  162.1314 C.ar    1  UNL1        0.1535
      6 C         140.2672  143.3038  162.4124 C.ar    1  UNL1        0.0369
      7 C         140.1668  142.6245  163.7460 C.ar    1  UNL1        0.0930
      8 CL        139.0292  141.6881  164.0269 Cl      1  UNL1       -0.0790
      9 S         141.5052  144.9196  160.7979 S.O2    1  UNL1        0.0769
     10 O         140.3719  145.8271  161.1748 O.2     1  UNL1       -0.1498
     11 O         142.6384  144.0121  160.4209 O.2     1  UNL1       -0.1498
     12 N         141.6055  145.5989  159.4643 N.pl3   1  UNL1       -0.1987
     13 H         142.2700  146.3116  159.3236 H       1  UNL1        0.1753
     14 C         140.6935  145.1923  158.3449 C.ar    1  UNL1        0.1503
     15 C         140.4736  146.1157  157.1835 C.ar    1  UNL1        0.0563
     16 C         139.5616  145.7091  156.0642 C.ar    1  UNL1        0.1036
     17 N         138.8695  144.3790  156.1063 N.ar    1  UNL1       -0.2223
     18 C         139.0894  143.4555  157.2677 C.ar    1  UNL1        0.2001
     19 N         140.0014  143.8621  158.3870 N.ar    1  UNL1       -0.2077
     20 O         141.1036  142.2023  166.1322 O.3     1  UNL1       -0.4779
     21 C         142.0785  140.4577  167.7923 C.3     1  UNL1        0.0799
     22 C         142.8363  139.1883  168.0463 C.3     1  UNL1        0.0095
     23 C         143.3768  138.3942  166.8943 C.3     1  UNL1        0.0006
     24 C         143.1596  138.8695  165.4882 C.3     1  UNL1        0.0037
     25 C         142.4019  140.1388  165.2342 C.3     1  UNL1        0.0439
     26 C         141.8614  140.9329  166.3862 C.3     1  UNL1        0.1713
     27 C         143.8164  142.3633  169.7918 C.3     1  UNL1        0.1533
     28 N         142.3367  142.1277  169.8634 N.ar    1  UNL1       -0.2527
     29 N         141.3961  142.7267  170.8666 N.ar    1  UNL1       -0.1679
     30 C         140.0159  142.2210  170.5675 C.ar    1  UNL1        0.1213
     31 C         140.1036  141.3094  169.3795 C.ar    1  UNL1        0.0369
     32 C         141.5380  141.2518  168.9443 C.ar    1  UNL1        0.0603
@<TRIPOS>BOND
     1    27    28    1
     2    28    29   ar
     3    29    30   ar
     4    30    31   ar
     5    31    32   ar
     6    21    32    1
     7    21    22    1
     8    22    23    1
     9    23    24    1
    10    24    25    1
    11    25    26    1
    12    26    20    1
    13    20     1    1
    14     1     2   ar
    15     2     3   ar
    16     3     4    1
    17     3     5   ar
    18     5     9    1
    19     9    10    2
    20     9    11    2
    21     9    12    1
    22    12    14    1
    23    14    15   ar
    24    15    16   ar
    25    16    17   ar
    26    17    18   ar
    27    18    19   ar
    28     5     6   ar
    29     6     7   ar
    30     7     8    1
    31    32    28   ar
    32    26    21    1
    33     7     1   ar
    34    19    14   ar
    35    12    13    1
