@<TRIPOS>MOLECULE
*****
 27 30 0 0 0
SMALL
GASTEIGER

@<TRIPOS>ATOM
      1 O         144.3859  142.1629  165.1397 O.2     1  UNL1       -0.2698
      2 C         143.0968  142.2294  165.9038 C.2     1  UNL1        0.2520
      3 N         141.9140  142.9425  165.3186 N.am    1  UNL1       -0.2762
      4 C         142.9906  141.5828  167.2531 C.ar    1  UNL1        0.0880
      5 C         143.2993  142.3733  168.4900 C.ar    1  UNL1        0.0076
      6 C         143.1930  141.7267  169.8392 C.ar    1  UNL1        0.0003
      7 C         142.7780  140.2896  169.9517 C.ar    1  UNL1        0.0031
      8 C         142.4693  139.4992  168.7148 C.ar    1  UNL1        0.0376
      9 C         142.5756  140.1458  167.3656 C.ar    1  UNL1        0.1496
     10 O         142.2668  139.3553  166.1286 O.3     1  UNL1       -0.4533
     11 C         140.9020  139.4317  165.5109 C.ar    1  UNL1        0.1453
     12 C         140.7579  139.5466  164.0222 C.ar    1  UNL1        0.0375
     13 C         139.3932  139.6230  163.4045 C.ar    1  UNL1        0.0031
     14 C         138.1725  139.5846  164.2755 C.ar    1  UNL1        0.0002
     15 C         138.3166  139.4698  165.7641 C.ar    1  UNL1        0.0031
     16 C         139.6814  139.3934  166.3818 C.ar    1  UNL1        0.0375
     17 C         142.0203  143.5891  163.9692 C.3     1  UNL1        0.0927
     18 C         141.7490  142.9273  162.6507 C.3     1  UNL1        0.0383
     19 C         141.9775  143.9402  161.5681 C.3     1  UNL1        0.0704
     20 N         142.3900  145.2279  162.2176 N.3     1  UNL1       -0.2960
     21 C         142.4164  145.0109  163.7016 C.3     1  UNL1        0.0887
     22 H         141.7204  145.9619  161.9870 H       1  UNL1        0.1233
     23 C         140.6249  143.0090  166.0827 C.3     1  UNL1        0.0936
     24 C         139.3961  143.5726  165.4328 C.3     1  UNL1        0.0199
     25 C         138.3295  143.0284  164.5295 C.3     1  UNL1        0.0017
     26 C         137.6583  144.3698  164.5137 C.3     1  UNL1        0.0001
     27 C         138.7250  144.9140  165.4171 C.3     1  UNL1        0.0017
@<TRIPOS>BOND
     1     1     2    2
     2     2     4    1
     3     4     5   ar
     4     5     6   ar
     5     6     7   ar
     6     7     8   ar
     7     8     9   ar
     8     9    10    1
     9    10    11    1
    10    11    12   ar
    11    12    13   ar
    12    13    14   ar
    13    14    15   ar
    14    15    16   ar
    15     2     3   am
    16     3    23    1
    17    23    24    1
    18    24    25    1
    19    25    26    1
    20    26    27    1
    21    17     3    1
    22    17    18    1
    23    18    19    1
    24    19    20    1
    25    20    21    1
    26     9     4   ar
    27    16    11   ar
    28    27    24    1
    29    21    17    1
    30    20    22    1
@<TRIPOS>MOLECULE
*****
 27 30 0 0 0
SMALL
GASTEIGER

@<TRIPOS>ATOM
      1 O         144.1997  137.9783  166.9375 O.2     1  UNL1       -0.2698
      2 C         143.0133  138.6549  166.3172 C.2     1  UNL1        0.2520
      3 N         142.2222  139.6548  167.1073 N.am    1  UNL1       -0.2762
      4 C         142.6181  138.3316  164.9067 C.ar    1  UNL1        0.0880
      5 C         141.4591  137.4164  164.6437 C.ar    1  UNL1        0.0076
      6 C         141.0640  137.0930  163.2333 C.ar    1  UNL1        0.0003
      7 C         141.8277  137.6849  162.0860 C.ar    1  UNL1        0.0031
      8 C         142.9866  138.6001  162.3490 C.ar    1  UNL1        0.0376
      9 C         143.3818  138.9235  163.7594 C.ar    1  UNL1        0.1496
     10 O         144.5408  139.8387  164.0225 O.3     1  UNL1       -0.4533
     11 C         144.3771  141.3211  163.8626 C.ar    1  UNL1        0.1453
     12 C         144.6338  141.9648  162.5322 C.ar    1  UNL1        0.0375
     13 C         144.4701  143.4473  162.3723 C.ar    1  UNL1        0.0031
     14 C         144.0497  144.2860  163.5427 C.ar    1  UNL1        0.0002
     15 C         143.7929  143.6423  164.8730 C.ar    1  UNL1        0.0031
     16 C         143.9566  142.1599  165.0329 C.ar    1  UNL1        0.0375
     17 C         142.6175  139.9782  168.5177 C.3     1  UNL1        0.0927
     18 C         143.1004  141.3085  169.0150 C.3     1  UNL1        0.0383
     19 C         143.3806  141.1805  170.4831 C.3     1  UNL1        0.0704
     20 N         143.0708  139.7712  170.8930 N.3     1  UNL1       -0.2960
     21 C         142.5992  139.0282  169.6783 C.3     1  UNL1        0.0887
     22 H         142.3401  139.7703  171.6047 H       1  UNL1        0.1233
     23 C         141.0359  140.3315  166.4870 C.3     1  UNL1        0.0936
     24 C         139.6622  139.7596  166.6769 C.3     1  UNL1        0.0199
     25 C         138.5928  139.2422  165.7612 C.3     1  UNL1        0.0017
     26 C         137.7195  138.9509  166.9455 C.3     1  UNL1        0.0001
     27 C         138.7889  139.4684  167.8612 C.3     1  UNL1        0.0017
@<TRIPOS>BOND
     1     1     2    2
     2     2     4    1
     3     4     5   ar
     4     5     6   ar
     5     6     7   ar
     6     7     8   ar
     7     8     9   ar
     8     9    10    1
     9    10    11    1
    10    11    12   ar
    11    12    13   ar
    12    13    14   ar
    13    14    15   ar
    14    15    16   ar
    15     2     3   am
    16     3    23    1
    17    23    24    1
    18    24    25    1
    19    25    26    1
    20    26    27    1
    21    17     3    1
    22    17    18    1
    23    18    19    1
    24    19    20    1
    25    20    21    1
    26     9     4   ar
    27    16    11   ar
    28    27    24    1
    29    21    17    1
    30    20    22    1
@<TRIPOS>MOLECULE
*****
 27 30 0 0 0
SMALL
GASTEIGER

@<TRIPOS>ATOM
      1 O         138.5502  138.8957  166.5811 O.2     1  UNL1       -0.2698
      2 C         139.0961  140.2404  166.2019 C.2     1  UNL1        0.2520
      3 N         139.9004  141.0297  167.1919 N.am    1  UNL1       -0.2762
      4 C         138.8376  140.7958  164.8327 C.ar    1  UNL1        0.0880
      5 C         137.9922  142.0240  164.6688 C.ar    1  UNL1        0.0076
      6 C         137.7338  142.5793  163.2995 C.ar    1  UNL1        0.0003
      7 C         138.3208  141.9065  162.0942 C.ar    1  UNL1        0.0031
      8 C         139.1661  140.6783  162.2581 C.ar    1  UNL1        0.0376
      9 C         139.4246  140.1230  163.6273 C.ar    1  UNL1        0.1496
     10 O         140.2700  138.8948  163.7913 O.3     1  UNL1       -0.4533
     11 C         141.7455  139.0260  164.0273 C.ar    1  UNL1        0.1453
     12 C         142.6448  139.4838  162.9174 C.ar    1  UNL1        0.0375
     13 C         144.1203  139.6150  163.1534 C.ar    1  UNL1        0.0031
     14 C         144.6965  139.2883  164.4993 C.ar    1  UNL1        0.0002
     15 C         143.7972  138.8305  165.6091 C.ar    1  UNL1        0.0031
     16 C         142.3217  138.6993  165.3731 C.ar    1  UNL1        0.0375
     17 C         140.1588  140.4743  168.5611 C.3     1  UNL1        0.0927
     18 C         141.4498  139.8815  169.0428 C.3     1  UNL1        0.0383
     19 C         141.2606  139.4550  170.4685 C.3     1  UNL1        0.0704
     20 N         139.8526  139.7843  170.8678 N.3     1  UNL1       -0.2960
     21 C         139.1718  140.4143  169.6890 C.3     1  UNL1        0.0887
     22 H         139.8588  140.4357  171.6528 H       1  UNL1        0.1233
     23 C         140.4462  142.3744  166.8127 C.3     1  UNL1        0.0936
     24 C         141.7870  142.4794  166.1482 C.3     1  UNL1        0.0199
     25 C         143.2106  142.3925  166.6126 C.3     1  UNL1        0.0017
     26 C         143.6830  142.6278  165.2085 C.3     1  UNL1        0.0001
     27 C         142.2594  142.7147  164.7441 C.3     1  UNL1        0.0017
@<TRIPOS>BOND
     1     1     2    2
     2     2     4    1
     3     4     5   ar
     4     5     6   ar
     5     6     7   ar
     6     7     8   ar
     7     8     9   ar
     8     9    10    1
     9    10    11    1
    10    11    12   ar
    11    12    13   ar
    12    13    14   ar
    13    14    15   ar
    14    15    16   ar
    15     2     3   am
    16     3    23    1
    17    23    24    1
    18    24    25    1
    19    25    26    1
    20    26    27    1
    21    17     3    1
    22    17    18    1
    23    18    19    1
    24    19    20    1
    25    20    21    1
    26     9     4   ar
    27    16    11   ar
    28    27    24    1
    29    21    17    1
    30    20    22    1
@<TRIPOS>MOLECULE
*****
 27 30 0 0 0
SMALL
GASTEIGER

@<TRIPOS>ATOM
      1 O         139.5761  143.3352  164.8411 O.2     1  UNL1       -0.2698
      2 C         140.6418  142.6527  165.6465 C.2     1  UNL1        0.2520
      3 N         142.0774  142.7452  165.2219 N.am    1  UNL1       -0.2762
      4 C         140.2717  141.8778  166.8764 C.ar    1  UNL1        0.0880
      5 C         140.7408  142.3406  168.2239 C.ar    1  UNL1        0.0076
      6 C         140.3708  141.5657  169.4537 C.ar    1  UNL1        0.0003
      7 C         139.5317  140.3280  169.3360 C.ar    1  UNL1        0.0031
      8 C         139.0625  139.8651  167.9886 C.ar    1  UNL1        0.0376
      9 C         139.4326  140.6401  166.7588 C.ar    1  UNL1        0.1496
     10 O         138.9635  140.1773  165.4112 O.3     1  UNL1       -0.4533
     11 C         139.8348  139.2825  164.5803 C.ar    1  UNL1        0.1453
     12 C         140.5373  139.8301  163.3734 C.ar    1  UNL1        0.0375
     13 C         141.4086  138.9354  162.5425 C.ar    1  UNL1        0.0031
     14 C         141.5773  137.4931  162.9186 C.ar    1  UNL1        0.0002
     15 C         140.8748  136.9456  164.1255 C.ar    1  UNL1        0.0031
     16 C         140.0035  137.8403  164.9564 C.ar    1  UNL1        0.0375
     17 C         142.4475  143.5201  163.9920 C.3     1  UNL1        0.0927
     18 C         142.3048  143.0470  162.5758 C.3     1  UNL1        0.0383
     19 C         142.7943  144.1387  161.6708 C.3     1  UNL1        0.0704
     20 N         143.2394  145.2864  162.5280 N.3     1  UNL1       -0.2960
     21 C         143.0251  144.9041  163.9625 C.3     1  UNL1        0.0887
     22 H         142.6914  146.1174  162.3056 H       1  UNL1        0.1233
     23 C         143.1431  142.0627  166.0273 C.3     1  UNL1        0.0936
     24 C         143.3264  140.5776  165.9231 C.3     1  UNL1        0.0199
     25 C         142.9151  139.3974  166.7524 C.3     1  UNL1        0.0017
     26 C         143.5857  138.4773  165.7758 C.3     1  UNL1        0.0001
     27 C         143.9970  139.6576  164.9464 C.3     1  UNL1        0.0017
@<TRIPOS>BOND
     1     1     2    2
     2     2     4    1
     3     4     5   ar
     4     5     6   ar
     5     6     7   ar
     6     7     8   ar
     7     8     9   ar
     8     9    10    1
     9    10    11    1
    10    11    12   ar
    11    12    13   ar
    12    13    14   ar
    13    14    15   ar
    14    15    16   ar
    15     2     3   am
    16     3    23    1
    17    23    24    1
    18    24    25    1
    19    25    26    1
    20    26    27    1
    21    17     3    1
    22    17    18    1
    23    18    19    1
    24    19    20    1
    25    20    21    1
    26     9     4   ar
    27    16    11   ar
    28    27    24    1
    29    21    17    1
    30    20    22    1
@<TRIPOS>MOLECULE
*****
 27 30 0 0 0
SMALL
GASTEIGER

@<TRIPOS>ATOM
      1 O         138.0285  139.1309  168.0977 O.2     1  UNL1       -0.2698
      2 C         139.1103  139.5418  167.1434 C.2     1  UNL1        0.2520
      3 N         140.2832  140.3363  167.6363 N.am    1  UNL1       -0.2762
      4 C         139.0192  139.1582  165.6961 C.ar    1  UNL1        0.0880
      5 C         139.5030  137.8119  165.2451 C.ar    1  UNL1        0.0076
      6 C         139.4119  137.4283  163.7979 C.ar    1  UNL1        0.0003
      7 C         138.8370  138.3911  162.8016 C.ar    1  UNL1        0.0031
      8 C         138.3532  139.7374  163.2525 C.ar    1  UNL1        0.0376
      9 C         138.4443  140.1209  164.6998 C.ar    1  UNL1        0.1496
     10 O         137.9605  141.4673  165.1508 O.3     1  UNL1       -0.4533
     11 C         138.4799  142.7104  164.4914 C.ar    1  UNL1        0.1453
     12 C         139.7856  143.3033  164.9317 C.ar    1  UNL1        0.0375
     13 C         140.3050  144.5465  164.2723 C.ar    1  UNL1        0.0031
     14 C         139.5188  145.1967  163.1726 C.ar    1  UNL1        0.0002
     15 C         138.2132  144.6037  162.7324 C.ar    1  UNL1        0.0031
     16 C         137.6938  143.3606  163.3918 C.ar    1  UNL1        0.0375
     17 C         140.3743  140.7199  169.0836 C.3     1  UNL1        0.0927
     18 C         140.1053  142.0812  169.6534 C.3     1  UNL1        0.0383
     19 C         140.3151  142.0123  171.1372 C.3     1  UNL1        0.0704
     20 N         140.7138  140.6084  171.4842 N.3     1  UNL1       -0.2960
     21 C         140.7503  139.8098  170.2150 C.3     1  UNL1        0.0887
     22 H         140.0334  140.2045  172.1279 H       1  UNL1        0.1233
     23 C         141.3650  140.7473  166.6820 C.3     1  UNL1        0.0936
     24 C         142.4665  139.7885  166.3389 C.3     1  UNL1        0.0199
     25 C         143.1694  138.6780  167.0617 C.3     1  UNL1        0.0017
     26 C         144.0242  138.4327  165.8536 C.3     1  UNL1        0.0001
     27 C         143.3212  139.5432  165.1308 C.3     1  UNL1        0.0017
@<TRIPOS>BOND
     1     1     2    2
     2     2     4    1
     3     4     5   ar
     4     5     6   ar
     5     6     7   ar
     6     7     8   ar
     7     8     9   ar
     8     9    10    1
     9    10    11    1
    10    11    12   ar
    11    12    13   ar
    12    13    14   ar
    13    14    15   ar
    14    15    16   ar
    15     2     3   am
    16     3    23    1
    17    23    24    1
    18    24    25    1
    19    25    26    1
    20    26    27    1
    21    17     3    1
    22    17    18    1
    23    18    19    1
    24    19    20    1
    25    20    21    1
    26     9     4   ar
    27    16    11   ar
    28    27    24    1
    29    21    17    1
    30    20    22    1
@<TRIPOS>MOLECULE
*****
 27 30 0 0 0
SMALL
GASTEIGER

@<TRIPOS>ATOM
      1 O         143.0208  140.0040  168.1361 O.2     1  UNL1       -0.2698
      2 C         142.5537  140.9471  167.0673 C.2     1  UNL1        0.2520
      3 N         141.2230  141.6272  167.1964 N.am    1  UNL1       -0.2762
      4 C         143.4173  141.2101  165.8693 C.ar    1  UNL1        0.0880
      5 C         143.9944  142.5765  165.6462 C.ar    1  UNL1        0.0076
      6 C         144.8580  142.8394  164.4483 C.ar    1  UNL1        0.0003
      7 C         145.1445  141.7359  163.4735 C.ar    1  UNL1        0.0031
      8 C         144.5674  140.3694  163.6966 C.ar    1  UNL1        0.0376
      9 C         143.7038  140.1066  164.8946 C.ar    1  UNL1        0.1496
     10 O         143.1267  138.7401  165.1178 O.3     1  UNL1       -0.4533
     11 C         141.7975  138.3809  164.5224 C.ar    1  UNL1        0.1453
     12 C         140.5775  138.3205  165.3930 C.ar    1  UNL1        0.0375
     13 C         139.2484  137.9613  164.7977 C.ar    1  UNL1        0.0031
     14 C         139.1393  137.6626  163.3317 C.ar    1  UNL1        0.0002
     15 C         140.3593  137.7230  162.4612 C.ar    1  UNL1        0.0031
     16 C         141.6885  138.0822  163.0565 C.ar    1  UNL1        0.0375
     17 C         140.3594  141.3643  168.3944 C.3     1  UNL1        0.0927
     18 C         139.4887  140.1614  168.6065 C.3     1  UNL1        0.0383
     19 C         138.8060  140.3117  169.9338 C.3     1  UNL1        0.0704
     20 N         139.2548  141.6075  170.5417 N.3     1  UNL1       -0.2960
     21 C         140.2148  142.2580  169.5903 C.3     1  UNL1        0.0887
     22 H         139.7178  141.4296  171.4330 H       1  UNL1        0.1233
     23 C         140.7559  142.5703  166.1276 C.3     1  UNL1        0.0936
     24 C         140.0372  142.0409  164.9220 C.3     1  UNL1        0.0199
     25 C         138.6218  141.6478  164.6187 C.3     1  UNL1        0.0017
     26 C         139.0208  141.2923  163.2171 C.3     1  UNL1        0.0001
     27 C         140.4363  141.6855  163.5204 C.3     1  UNL1        0.0017
@<TRIPOS>BOND
     1     1     2    2
     2     2     4    1
     3     4     5   ar
     4     5     6   ar
     5     6     7   ar
     6     7     8   ar
     7     8     9   ar
     8     9    10    1
     9    10    11    1
    10    11    12   ar
    11    12    13   ar
    12    13    14   ar
    13    14    15   ar
    14    15    16   ar
    15     2     3   am
    16     3    23    1
    17    23    24    1
    18    24    25    1
    19    25    26    1
    20    26    27    1
    21    17     3    1
    22    17    18    1
    23    18    19    1
    24    19    20    1
    25    20    21    1
    26     9     4   ar
    27    16    11   ar
    28    27    24    1
    29    21    17    1
    30    20    22    1
@<TRIPOS>MOLECULE
*****
 27 30 0 0 0
SMALL
GASTEIGER

@<TRIPOS>ATOM
      1 O         139.4984  140.0163  168.0632 O.2     1  UNL1       -0.2698
      2 C         140.4879  140.1645  166.9456 C.2     1  UNL1        0.2520
      3 N         141.5973  141.1683  167.0544 N.am    1  UNL1       -0.2762
      4 C         140.3681  139.3090  165.7193 C.ar    1  UNL1        0.0880
      5 C         141.4260  138.2923  165.4078 C.ar    1  UNL1        0.0076
      6 C         141.3062  137.4368  164.1815 C.ar    1  UNL1        0.0003
      7 C         140.1283  137.5980  163.2668 C.ar    1  UNL1        0.0031
      8 C         139.0704  138.6147  163.5783 C.ar    1  UNL1        0.0376
      9 C         139.1903  139.4702  164.8046 C.ar    1  UNL1        0.1496
     10 O         138.1323  140.4869  165.1162 O.3     1  UNL1       -0.4533
     11 C         138.1906  141.8471  164.4864 C.ar    1  UNL1        0.1453
     12 C         138.6380  143.0291  165.2944 C.ar    1  UNL1        0.0375
     13 C         138.6964  144.3893  164.6646 C.ar    1  UNL1        0.0031
     14 C         138.3073  144.5674  163.2269 C.ar    1  UNL1        0.0002
     15 C         137.8599  143.3854  162.4190 C.ar    1  UNL1        0.0031
     16 C         137.8016  142.0253  163.0488 C.ar    1  UNL1        0.0375
     17 C         141.7171  142.0238  168.2807 C.3     1  UNL1        0.0927
     18 C         142.8872  142.0613  169.2185 C.3     1  UNL1        0.0383
     19 C         142.5812  143.0527  170.3019 C.3     1  UNL1        0.0704
     20 N         141.2220  143.6278  170.0335 N.3     1  UNL1       -0.2960
     21 C         140.6880  142.9919  168.7844 C.3     1  UNL1        0.0887
     22 H         141.2924  144.6373  169.9052 H       1  UNL1        0.1233
     23 C         142.5868  141.3165  165.9369 C.3     1  UNL1        0.0936
     24 C         142.2469  142.1552  164.7405 C.3     1  UNL1        0.0199
     25 C         141.7047  141.8773  163.3699 C.3     1  UNL1        0.0017
     26 C         141.7663  143.3412  163.0486 C.3     1  UNL1        0.0001
     27 C         142.3085  143.6191  164.4193 C.3     1  UNL1        0.0017
@<TRIPOS>BOND
     1     1     2    2
     2     2     4    1
     3     4     5   ar
     4     5     6   ar
     5     6     7   ar
     6     7     8   ar
     7     8     9   ar
     8     9    10    1
     9    10    11    1
    10    11    12   ar
    11    12    13   ar
    12    13    14   ar
    13    14    15   ar
    14    15    16   ar
    15     2     3   am
    16     3    23    1
    17    23    24    1
    18    24    25    1
    19    25    26    1
    20    26    27    1
    21    17     3    1
    22    17    18    1
    23    18    19    1
    24    19    20    1
    25    20    21    1
    26     9     4   ar
    27    16    11   ar
    28    27    24    1
    29    21    17    1
    30    20    22    1
@<TRIPOS>MOLECULE
*****
 27 30 0 0 0
SMALL
GASTEIGER

@<TRIPOS>ATOM
      1 O         139.2668  143.8194  166.1321 O.2     1  UNL1       -0.2698
      2 C         140.5883  143.1461  165.9078 C.2     1  UNL1        0.2520
      3 N         141.2629  142.4233  167.0358 N.am    1  UNL1       -0.2762
      4 C         141.2352  143.1955  164.5553 C.ar    1  UNL1        0.0880
      5 C         142.5560  143.8845  164.3804 C.ar    1  UNL1        0.0076
      6 C         143.2028  143.9339  163.0280 C.ar    1  UNL1        0.0003
      7 C         142.5288  143.2943  161.8504 C.ar    1  UNL1        0.0031
      8 C         141.2080  142.6052  162.0253 C.ar    1  UNL1        0.0376
      9 C         140.5612  142.5558  163.3777 C.ar    1  UNL1        0.1496
     10 O         139.2403  141.8668  163.5527 O.3     1  UNL1       -0.4533
     11 C         139.1928  140.4492  164.0408 C.ar    1  UNL1        0.1453
     12 C         139.5607  139.3255  163.1177 C.ar    1  UNL1        0.0375
     13 C         139.5131  137.9079  163.6058 C.ar    1  UNL1        0.0031
     14 C         139.0976  137.6141  165.0169 C.ar    1  UNL1        0.0002
     15 C         138.7298  138.7378  165.9398 C.ar    1  UNL1        0.0031
     16 C         138.7773  140.1553  165.4518 C.ar    1  UNL1        0.0375
     17 C         140.6160  142.3739  168.3883 C.3     1  UNL1        0.0927
     18 C         140.5372  143.5055  169.3698 C.3     1  UNL1        0.0383
     19 C         139.8068  143.0152  170.5849 C.3     1  UNL1        0.0704
     20 N         139.4342  141.5806  170.3542 N.3     1  UNL1       -0.2960
     21 C         139.9343  141.1843  168.9967 C.3     1  UNL1        0.0887
     22 H         138.4204  141.4756  170.3939 H       1  UNL1        0.1233
     23 C         142.5843  141.7500  166.8115 C.3     1  UNL1        0.0936
     24 C         142.6343  140.3809  166.2004 C.3     1  UNL1        0.0199
     25 C         142.5221  138.9804  166.7253 C.3     1  UNL1        0.0017
     26 C         142.7050  138.4450  165.3361 C.3     1  UNL1        0.0001
     27 C         142.8172  139.8456  164.8111 C.3     1  UNL1        0.0017
@<TRIPOS>BOND
     1     1     2    2
     2     2     4    1
     3     4     5   ar
     4     5     6   ar
     5     6     7   ar
     6     7     8   ar
     7     8     9   ar
     8     9    10    1
     9    10    11    1
    10    11    12   ar
    11    12    13   ar
    12    13    14   ar
    13    14    15   ar
    14    15    16   ar
    15     2     3   am
    16     3    23    1
    17    23    24    1
    18    24    25    1
    19    25    26    1
    20    26    27    1
    21    17     3    1
    22    17    18    1
    23    18    19    1
    24    19    20    1
    25    20    21    1
    26     9     4   ar
    27    16    11   ar
    28    27    24    1
    29    21    17    1
    30    20    22    1
@<TRIPOS>MOLECULE
*****
 27 30 0 0 0
SMALL
GASTEIGER

@<TRIPOS>ATOM
      1 O         143.7218  138.3047  166.5285 O.2     1  UNL1       -0.2698
      2 C         142.3844  138.8786  166.1652 C.2     1  UNL1        0.2520
      3 N         141.6622  139.7684  167.1330 N.am    1  UNL1       -0.2762
      4 C         141.7692  138.5627  164.8341 C.ar    1  UNL1        0.0880
      5 C         140.4920  137.7793  164.7651 C.ar    1  UNL1        0.0076
      6 C         139.8769  137.4634  163.4340 C.ar    1  UNL1        0.0003
      7 C         140.5391  137.9311  162.1719 C.ar    1  UNL1        0.0031
      8 C         141.8163  138.7146  162.2409 C.ar    1  UNL1        0.0376
      9 C         142.4314  139.0304  163.5720 C.ar    1  UNL1        0.1496
     10 O         143.7086  139.8139  163.6410 O.3     1  UNL1       -0.4533
     11 C         143.6661  141.3058  163.7912 C.ar    1  UNL1        0.1453
     12 C         144.0217  141.9378  165.1044 C.ar    1  UNL1        0.0375
     13 C         143.9792  143.4297  165.2546 C.ar    1  UNL1        0.0031
     14 C         143.5811  144.2895  164.0917 C.ar    1  UNL1        0.0002
     15 C         143.2255  143.6575  162.7787 C.ar    1  UNL1        0.0031
     16 C         143.2680  142.1656  162.6284 C.ar    1  UNL1        0.0375
     17 C         142.2773  140.0843  168.4641 C.3     1  UNL1        0.0927
     18 C         142.3224  139.1713  169.6534 C.3     1  UNL1        0.0383
     19 C         143.0283  139.8913  170.7640 C.3     1  UNL1        0.0704
     20 N         143.4195  141.2493  170.2610 N.3     1  UNL1       -0.2960
     21 C         142.9553  141.3686  168.8396 C.3     1  UNL1        0.0887
     22 H         144.4330  141.3558  170.3043 H       1  UNL1        0.1233
     23 C         140.3248  140.3424  166.7697 C.3     1  UNL1        0.0936
     24 C         140.2444  141.6064  165.9659 C.3     1  UNL1        0.0199
     25 C         140.3408  143.0701  166.2787 C.3     1  UNL1        0.0017
     26 C         140.1307  143.3938  164.8292 C.3     1  UNL1        0.0001
     27 C         140.0343  141.9299  164.5164 C.3     1  UNL1        0.0017
@<TRIPOS>BOND
     1     1     2    2
     2     2     4    1
     3     4     5   ar
     4     5     6   ar
     5     6     7   ar
     6     7     8   ar
     7     8     9   ar
     8     9    10    1
     9    10    11    1
    10    11    12   ar
    11    12    13   ar
    12    13    14   ar
    13    14    15   ar
    14    15    16   ar
    15     2     3   am
    16     3    23    1
    17    23    24    1
    18    24    25    1
    19    25    26    1
    20    26    27    1
    21    17     3    1
    22    17    18    1
    23    18    19    1
    24    19    20    1
    25    20    21    1
    26     9     4   ar
    27    16    11   ar
    28    27    24    1
    29    21    17    1
    30    20    22    1
