@<TRIPOS>MOLECULE
*****
 25 27 0 0 0
SMALL
GASTEIGER

@<TRIPOS>ATOM
      1 N         141.6875  141.9394  169.3858 N.3     1  UNL1       -0.2639
      2 C         143.1366  142.1392  169.7183 C.3     1  UNL1        0.0902
      3 C         140.8260  143.1200  169.0478 C.3     1  UNL1        0.0992
      4 C         140.8360  143.0179  166.4518 C.2     1  UNL1       -0.0032
      5 C         140.0866  143.1599  167.7434 C.2     1  UNL1       -0.0088
      6 C         138.6176  143.1377  162.5384 C.ar    1  UNL1        0.1387
      7 C         138.4143  144.2269  163.5494 C.ar    1  UNL1        0.0369
      8 C         139.1537  144.1870  164.8539 C.ar    1  UNL1        0.0031
      9 C         140.0965  143.0578  165.1473 C.ar    1  UNL1       -0.0001
     10 C         140.3000  141.9686  164.1363 C.ar    1  UNL1        0.0031
     11 C         139.5605  142.0086  162.8318 C.ar    1  UNL1        0.0369
     12 C         138.5035  142.5984  159.9995 C.3     1  UNL1        0.2525
     13 O         137.8783  143.1776  161.2339 O.3     1  UNL1       -0.4714
     14 C         141.1001  140.5592  169.3914 C.3     1  UNL1        0.0994
     15 C         140.5929  139.9550  168.1157 C.ar    1  UNL1       -0.0065
     16 C         139.1204  139.7489  167.9170 C.ar    1  UNL1       -0.0033
     17 C         138.6131  139.1446  166.6412 C.ar    1  UNL1       -0.0049
     18 C         139.5783  138.7464  165.5642 C.ar    1  UNL1       -0.0262
     19 C         141.0506  138.9525  165.7629 C.ar    1  UNL1       -0.0264
     20 C         141.5580  139.5568  167.0386 C.ar    1  UNL1       -0.0075
     21 C         142.1754  138.6285  164.8248 C.3     1  UNL1        0.0260
     22 C         142.1054  138.0184  163.4562 C.3     1  UNL1        0.0047
     23 C         140.8935  137.5816  162.6879 C.3     1  UNL1        0.0007
     24 C         139.4522  137.6470  163.0982 C.3     1  UNL1        0.0047
     25 C         138.8668  138.1654  164.3783 C.3     1  UNL1        0.0260
@<TRIPOS>BOND
     1    12    13    1
     2    13     6    1
     3     6     7   ar
     4     7     8   ar
     5     8     9   ar
     6     9     4    1
     7     4     5    2
     8     5     3    1
     9     3     1    1
    10     1     2    1
    11     1    14    1
    12    14    15    1
    13    15    16   ar
    14    16    17   ar
    15    17    18   ar
    16    18    19   ar
    17    19    20   ar
    18    19    21    1
    19    21    22    1
    20    22    23    1
    21    23    24    1
    22    24    25    1
    23     9    10   ar
    24    10    11   ar
    25    11     6   ar
    26    20    15   ar
    27    25    18    1
@<TRIPOS>MOLECULE
*****
 25 27 0 0 0
SMALL
GASTEIGER

@<TRIPOS>ATOM
      1 N         140.6690  139.9395  169.2046 N.3     1  UNL1       -0.2639
      2 C         140.1796  140.3008  170.5758 C.3     1  UNL1        0.0902
      3 C         139.6927  139.7863  168.0761 C.3     1  UNL1        0.0992
      4 C         139.6464  140.5810  165.6030 C.2     1  UNL1       -0.0032
      5 C         139.5336  140.8850  167.0675 C.2     1  UNL1       -0.0088
      6 C         139.1692  143.8776  162.5772 C.ar    1  UNL1        0.1387
      7 C         140.4208  143.0511  162.5949 C.ar    1  UNL1        0.0369
      8 C         140.5800  141.9522  163.6034 C.ar    1  UNL1        0.0031
      9 C         139.4873  141.6799  164.5944 C.ar    1  UNL1       -0.0001
     10 C         138.2357  142.5063  164.5769 C.ar    1  UNL1        0.0031
     11 C         138.0766  143.6051  163.5683 C.ar    1  UNL1        0.0369
     12 C         139.7395  146.2742  161.7523 C.3     1  UNL1        0.2525
     13 O         139.0101  144.9764  161.5687 O.3     1  UNL1       -0.4714
     14 C         142.1345  139.7314  168.9620 C.3     1  UNL1        0.0994
     15 C         142.7044  139.9389  167.5901 C.ar    1  UNL1       -0.0065
     16 C         143.0416  138.7562  166.7313 C.ar    1  UNL1       -0.0033
     17 C         143.6115  138.9637  165.3593 C.ar    1  UNL1       -0.0049
     18 C         143.8443  140.3539  164.8462 C.ar    1  UNL1       -0.0262
     19 C         143.5071  141.5365  165.7050 C.ar    1  UNL1       -0.0264
     20 C         142.9372  141.3291  167.0770 C.ar    1  UNL1       -0.0075
     21 C         143.6592  142.9951  165.3897 C.3     1  UNL1        0.0260
     22 C         144.1861  143.6312  164.1375 C.3     1  UNL1        0.0047
     23 C         144.6909  142.9659  162.8916 C.3     1  UNL1        0.0007
     24 C         144.7936  141.5001  162.5900 C.3     1  UNL1        0.0047
     25 C         144.4168  140.3376  163.4599 C.3     1  UNL1        0.0260
@<TRIPOS>BOND
     1    12    13    1
     2    13     6    1
     3     6     7   ar
     4     7     8   ar
     5     8     9   ar
     6     9     4    1
     7     4     5    2
     8     5     3    1
     9     3     1    1
    10     1     2    1
    11     1    14    1
    12    14    15    1
    13    15    16   ar
    14    16    17   ar
    15    17    18   ar
    16    18    19   ar
    17    19    20   ar
    18    19    21    1
    19    21    22    1
    20    22    23    1
    21    23    24    1
    22    24    25    1
    23     9    10   ar
    24    10    11   ar
    25    11     6   ar
    26    20    15   ar
    27    25    18    1
@<TRIPOS>MOLECULE
*****
 25 27 0 0 0
SMALL
GASTEIGER

@<TRIPOS>ATOM
      1 N         140.9935  141.7765  169.9525 N.3     1  UNL1       -0.2639
      2 C         141.9280  141.6570  171.1197 C.3     1  UNL1        0.0902
      3 C         140.7835  143.1075  169.2932 C.3     1  UNL1        0.0992
      4 C         140.8249  142.9792  166.6986 C.2     1  UNL1       -0.0032
      5 C         140.0686  143.1880  167.9770 C.2     1  UNL1       -0.0088
      6 C         138.6800  143.2209  162.7500 C.ar    1  UNL1        0.1387
      7 C         139.7770  142.2171  162.9475 C.ar    1  UNL1        0.0369
      8 C         140.4920  142.1365  164.2636 C.ar    1  UNL1        0.0031
      9 C         140.1099  143.0598  165.3824 C.ar    1  UNL1       -0.0001
     10 C         139.0130  144.0636  165.1851 C.ar    1  UNL1        0.0031
     11 C         138.2980  144.1442  163.8689 C.ar    1  UNL1        0.0369
     12 C         138.4108  142.4468  160.2847 C.3     1  UNL1        0.2525
     13 O         137.9650  143.3016  161.4339 O.3     1  UNL1       -0.4714
     14 C         140.2689  140.5653  169.4447 C.3     1  UNL1        0.0994
     15 C         140.6625  139.9505  168.1343 C.ar    1  UNL1       -0.0065
     16 C         142.1071  139.6747  167.8391 C.ar    1  UNL1       -0.0033
     17 C         142.5008  139.0600  166.5287 C.ar    1  UNL1       -0.0049
     18 C         141.4497  138.7210  165.5135 C.ar    1  UNL1       -0.0262
     19 C         140.0053  138.9969  165.8087 C.ar    1  UNL1       -0.0264
     20 C         139.6116  139.6116  167.1190 C.ar    1  UNL1       -0.0075
     21 C         138.8078  138.7384  164.9429 C.3     1  UNL1        0.0260
     22 C         138.7593  138.1402  163.5682 C.3     1  UNL1        0.0047
     23 C         139.8962  137.6528  162.7197 C.3     1  UNL1        0.0007
     24 C         141.3624  137.6432  163.0363 C.3     1  UNL1        0.0047
     25 C         142.0538  138.1186  164.2797 C.3     1  UNL1        0.0260
@<TRIPOS>BOND
     1    12    13    1
     2    13     6    1
     3     6     7   ar
     4     7     8   ar
     5     8     9   ar
     6     9     4    1
     7     4     5    2
     8     5     3    1
     9     3     1    1
    10     1     2    1
    11     1    14    1
    12    14    15    1
    13    15    16   ar
    14    16    17   ar
    15    17    18   ar
    16    18    19   ar
    17    19    20   ar
    18    19    21    1
    19    21    22    1
    20    22    23    1
    21    23    24    1
    22    24    25    1
    23     9    10   ar
    24    10    11   ar
    25    11     6   ar
    26    20    15   ar
    27    25    18    1
@<TRIPOS>MOLECULE
*****
 25 27 0 0 0
SMALL
GASTEIGER

@<TRIPOS>ATOM
      1 N         140.7734  140.3109  169.8488 N.3     1  UNL1       -0.2639
      2 C         140.9143  140.9735  171.1873 C.3     1  UNL1        0.0902
      3 C         139.4350  140.2625  169.1732 C.3     1  UNL1        0.0992
      4 C         138.6242  139.0896  167.0014 C.2     1  UNL1       -0.0032
      5 C         139.3516  140.2144  167.6764 C.2     1  UNL1       -0.0088
      6 C         138.3743  138.9453  162.5106 C.ar    1  UNL1        0.1387
      7 C         138.8447  137.7433  163.2747 C.ar    1  UNL1        0.0369
      8 C         138.9281  137.7913  164.7716 C.ar    1  UNL1        0.0031
      9 C         138.5409  139.0415  165.5045 C.ar    1  UNL1       -0.0001
     10 C         138.0705  140.2436  164.7406 C.ar    1  UNL1        0.0031
     11 C         137.9872  140.1955  163.2437 C.ar    1  UNL1        0.0369
     12 C         139.4685  138.4277  160.2118 C.3     1  UNL1        0.2525
     13 O         138.2910  138.8973  161.0137 O.3     1  UNL1       -0.4714
     14 C         141.9708  139.6969  169.1861 C.3     1  UNL1        0.0994
     15 C         142.5344  140.3104  167.9388 C.ar    1  UNL1       -0.0065
     16 C         142.7947  141.7866  167.8806 C.ar    1  UNL1       -0.0033
     17 C         143.3584  142.4001  166.6332 C.ar    1  UNL1       -0.0049
     18 C         143.6618  141.5375  165.4441 C.ar    1  UNL1       -0.0262
     19 C         143.4015  140.0616  165.5023 C.ar    1  UNL1       -0.0264
     20 C         142.8378  139.4479  166.7496 C.ar    1  UNL1       -0.0075
     21 C         143.6305  139.0288  164.4388 C.3     1  UNL1        0.0260
     22 C         144.1765  139.2171  163.0544 C.3     1  UNL1        0.0047
     23 C         144.6282  140.4846  162.3917 C.3     1  UNL1        0.0007
     24 C         144.6455  141.8769  162.9495 C.3     1  UNL1        0.0047
     25 C         144.2154  142.3456  164.3080 C.3     1  UNL1        0.0260
@<TRIPOS>BOND
     1    12    13    1
     2    13     6    1
     3     6     7   ar
     4     7     8   ar
     5     8     9   ar
     6     9     4    1
     7     4     5    2
     8     5     3    1
     9     3     1    1
    10     1     2    1
    11     1    14    1
    12    14    15    1
    13    15    16   ar
    14    16    17   ar
    15    17    18   ar
    16    18    19   ar
    17    19    20   ar
    18    19    21    1
    19    21    22    1
    20    22    23    1
    21    23    24    1
    22    24    25    1
    23     9    10   ar
    24    10    11   ar
    25    11     6   ar
    26    20    15   ar
    27    25    18    1
@<TRIPOS>MOLECULE
*****
 25 27 0 0 0
SMALL
GASTEIGER

@<TRIPOS>ATOM
      1 N         140.6197  141.0803  169.5986 N.3     1  UNL1       -0.2639
      2 C         140.4838  142.3834  170.3289 C.3     1  UNL1        0.0902
      3 C         139.4007  140.3924  169.0589 C.3     1  UNL1        0.0992
      4 C         139.5208  140.5043  166.4661 C.2     1  UNL1       -0.0032
      5 C         139.4572  139.6991  167.7300 C.2     1  UNL1       -0.0088
      6 C         139.6903  138.4243  162.4792 C.ar    1  UNL1        0.1387
      7 C         140.4508  139.6994  162.6929 C.ar    1  UNL1        0.0369
      8 C         140.3944  140.3928  164.0218 C.ar    1  UNL1        0.0031
      9 C         139.5773  139.8110  165.1371 C.ar    1  UNL1       -0.0001
     10 C         138.8167  138.5359  164.9235 C.ar    1  UNL1        0.0031
     11 C         138.8732  137.8426  163.5946 C.ar    1  UNL1        0.0369
     12 C         139.5650  138.5173  159.8858 C.3     1  UNL1        0.2525
     13 O         139.7468  137.7310  161.1503 O.3     1  UNL1       -0.4714
     14 C         141.9743  140.4650  169.4078 C.3     1  UNL1        0.0994
     15 C         142.5722  140.3787  168.0348 C.ar    1  UNL1       -0.0065
     16 C         142.8818  139.0393  167.4346 C.ar    1  UNL1       -0.0033
     17 C         143.4796  138.9529  166.0616 C.ar    1  UNL1       -0.0049
     18 C         143.7679  140.2058  165.2888 C.ar    1  UNL1       -0.0262
     19 C         143.4583  141.5451  165.8891 C.ar    1  UNL1       -0.0264
     20 C         142.8604  141.6316  167.2621 C.ar    1  UNL1       -0.0075
     21 C         143.6652  142.9068  165.2948 C.3     1  UNL1        0.0260
     22 C         144.2329  143.2653  163.9534 C.3     1  UNL1        0.0047
     23 C         144.7338  142.3508  162.8752 C.3     1  UNL1        0.0007
     24 C         144.7907  140.8519  162.8718 C.3     1  UNL1        0.0047
     25 C         144.3609  139.8973  163.9460 C.3     1  UNL1        0.0260
@<TRIPOS>BOND
     1    12    13    1
     2    13     6    1
     3     6     7   ar
     4     7     8   ar
     5     8     9   ar
     6     9     4    1
     7     4     5    2
     8     5     3    1
     9     3     1    1
    10     1     2    1
    11     1    14    1
    12    14    15    1
    13    15    16   ar
    14    16    17   ar
    15    17    18   ar
    16    18    19   ar
    17    19    20   ar
    18    19    21    1
    19    21    22    1
    20    22    23    1
    21    23    24    1
    22    24    25    1
    23     9    10   ar
    24    10    11   ar
    25    11     6   ar
    26    20    15   ar
    27    25    18    1
@<TRIPOS>MOLECULE
*****
 25 27 0 0 0
SMALL
GASTEIGER

@<TRIPOS>ATOM
      1 N         139.8691  145.3647  162.7090 N.3     1  UNL1       -0.2639
      2 C         139.6773  146.3295  161.5766 C.3     1  UNL1        0.0902
      3 C         141.2143  145.2283  163.3585 C.3     1  UNL1        0.0992
      4 C         142.0704  142.9032  164.1401 C.2     1  UNL1       -0.0032
      5 C         141.4218  144.2199  164.4493 C.2     1  UNL1       -0.0088
      6 C         142.6929  139.8780  167.4128 C.ar    1  UNL1        0.1387
      7 C         142.4728  139.4212  166.0011 C.ar    1  UNL1        0.0369
      8 C         142.2652  140.4295  164.9102 C.ar    1  UNL1        0.0031
      9 C         142.2779  141.8948  165.2310 C.ar    1  UNL1       -0.0001
     10 C         142.4980  142.3517  166.6426 C.ar    1  UNL1        0.0031
     11 C         142.7055  141.3433  167.7335 C.ar    1  UNL1        0.0369
     12 C         142.4452  139.1718  169.9007 C.3     1  UNL1        0.2525
     13 O         142.9004  138.8696  168.5038 O.3     1  UNL1       -0.4714
     14 C         138.7156  144.5363  163.1920 C.3     1  UNL1        0.0994
     15 C         138.8097  143.0393  163.1783 C.ar    1  UNL1       -0.0065
     16 C         139.1470  142.3207  161.9055 C.ar    1  UNL1       -0.0033
     17 C         139.2411  140.8237  161.8917 C.ar    1  UNL1       -0.0049
     18 C         138.9980  140.0454  163.1508 C.ar    1  UNL1       -0.0262
     19 C         138.6607  140.7640  164.4234 C.ar    1  UNL1       -0.0264
     20 C         138.5666  142.2609  164.4372 C.ar    1  UNL1       -0.0075
     21 C         138.3832  140.1849  165.7791 C.3     1  UNL1        0.0260
     22 C         138.3744  138.7442  166.1967 C.3     1  UNL1        0.0047
     23 C         138.6409  137.5269  165.3620 C.3     1  UNL1        0.0007
     24 C         138.9821  137.4494  163.9033 C.3     1  UNL1        0.0047
     25 C         139.1410  138.5702  162.9192 C.3     1  UNL1        0.0260
@<TRIPOS>BOND
     1    12    13    1
     2    13     6    1
     3     6     7   ar
     4     7     8   ar
     5     8     9   ar
     6     9     4    1
     7     4     5    2
     8     5     3    1
     9     3     1    1
    10     1     2    1
    11     1    14    1
    12    14    15    1
    13    15    16   ar
    14    16    17   ar
    15    17    18   ar
    16    18    19   ar
    17    19    20   ar
    18    19    21    1
    19    21    22    1
    20    22    23    1
    21    23    24    1
    22    24    25    1
    23     9    10   ar
    24    10    11   ar
    25    11     6   ar
    26    20    15   ar
    27    25    18    1
@<TRIPOS>MOLECULE
*****
 25 27 0 0 0
SMALL
GASTEIGER

@<TRIPOS>ATOM
      1 N         141.1001  140.7962  169.5517 N.3     1  UNL1       -0.2639
      2 C         142.2885  140.1894  170.2370 C.3     1  UNL1        0.0902
      3 C         139.8577  139.9818  169.3435 C.3     1  UNL1        0.0992
      4 C         139.9997  139.3254  166.8337 C.2     1  UNL1       -0.0032
      5 C         139.2302  139.9053  167.9833 C.2     1  UNL1       -0.0088
      6 C         138.1171  139.0959  162.7529 C.ar    1  UNL1        0.1387
      7 C         138.8677  137.9181  163.2999 C.ar    1  UNL1        0.0369
      8 C         139.4952  137.9945  164.6602 C.ar    1  UNL1        0.0031
      9 C         139.3722  139.2489  165.4735 C.ar    1  UNL1       -0.0001
     10 C         138.6216  140.4268  164.9265 C.ar    1  UNL1        0.0031
     11 C         137.9940  140.3503  163.5663 C.ar    1  UNL1        0.0369
     12 C         138.0477  139.8327  160.2625 C.3     1  UNL1        0.2525
     13 O         137.4895  139.0195  161.3926 O.3     1  UNL1       -0.4714
     14 C         141.1541  142.2173  169.0746 C.3     1  UNL1        0.0994
     15 C         141.2253  142.5130  167.6058 C.ar    1  UNL1       -0.0065
     16 C         142.4403  142.1188  166.8194 C.ar    1  UNL1       -0.0033
     17 C         142.5116  142.4145  165.3506 C.ar    1  UNL1       -0.0049
     18 C         141.3677  143.1045  164.6681 C.ar    1  UNL1       -0.0262
     19 C         140.1529  143.4987  165.4545 C.ar    1  UNL1       -0.0264
     20 C         140.0816  143.2030  166.9233 C.ar    1  UNL1       -0.0075
     21 C         138.9111  144.1895  164.9737 C.3     1  UNL1        0.0260
     22 C         138.5778  144.6566  163.5877 C.3     1  UNL1        0.0047
     23 C         139.4038  144.5483  162.3405 C.3     1  UNL1        0.0007
     24 C         140.7672  143.9462  162.1708 C.3     1  UNL1        0.0047
     25 C         141.6412  143.3037  163.2067 C.3     1  UNL1        0.0260
@<TRIPOS>BOND
     1    12    13    1
     2    13     6    1
     3     6     7   ar
     4     7     8   ar
     5     8     9   ar
     6     9     4    1
     7     4     5    2
     8     5     3    1
     9     3     1    1
    10     1     2    1
    11     1    14    1
    12    14    15    1
    13    15    16   ar
    14    16    17   ar
    15    17    18   ar
    16    18    19   ar
    17    19    20   ar
    18    19    21    1
    19    21    22    1
    20    22    23    1
    21    23    24    1
    22    24    25    1
    23     9    10   ar
    24    10    11   ar
    25    11     6   ar
    26    20    15   ar
    27    25    18    1
@<TRIPOS>MOLECULE
*****
 25 27 0 0 0
SMALL
GASTEIGER

@<TRIPOS>ATOM
      1 N         139.9365  137.8568  162.2639 N.3     1  UNL1       -0.2639
      2 C         139.3369  138.0534  160.9030 C.3     1  UNL1        0.0902
      3 C         139.0457  137.6599  163.4546 C.3     1  UNL1        0.0992
      4 C         139.1364  139.7153  165.0411 C.2     1  UNL1       -0.0032
      5 C         139.4153  138.2655  164.7761 C.2     1  UNL1       -0.0088
      6 C         140.2454  141.5320  169.0059 C.ar    1  UNL1        0.1387
      7 C         139.4063  140.2896  168.9587 C.ar    1  UNL1        0.0369
      8 C         139.0366  139.6840  167.6371 C.ar    1  UNL1        0.0031
      9 C         139.5061  140.3209  166.3627 C.ar    1  UNL1       -0.0001
     10 C         140.3451  141.5633  166.4099 C.ar    1  UNL1        0.0031
     11 C         140.7148  142.1689  167.7315 C.ar    1  UNL1        0.0369
     12 C         141.8135  141.6325  171.0749 C.3     1  UNL1        0.2525
     13 O         140.6151  142.1377  170.3275 O.3     1  UNL1       -0.4714
     14 C         141.4268  137.8570  162.4340 C.3     1  UNL1        0.0994
     15 C         142.1074  139.0257  163.0827 C.ar    1  UNL1       -0.0065
     16 C         143.0812  138.8002  164.2012 C.ar    1  UNL1       -0.0033
     17 C         143.7618  139.9689  164.8500 C.ar    1  UNL1       -0.0049
     18 C         143.4687  141.3630  164.3803 C.ar    1  UNL1       -0.0262
     19 C         142.4949  141.5884  163.2619 C.ar    1  UNL1       -0.0264
     20 C         141.8143  140.4198  162.6131 C.ar    1  UNL1       -0.0075
     21 C         142.0627  142.8858  162.6454 C.3     1  UNL1        0.0260
     22 C         142.4975  144.2782  162.9952 C.3     1  UNL1        0.0047
     23 C         143.4718  144.7170  164.0477 C.3     1  UNL1        0.0007
     24 C         144.2521  143.8720  165.0105 C.3     1  UNL1        0.0047
     25 C         144.2507  142.3793  165.1586 C.3     1  UNL1        0.0260
@<TRIPOS>BOND
     1    12    13    1
     2    13     6    1
     3     6     7   ar
     4     7     8   ar
     5     8     9   ar
     6     9     4    1
     7     4     5    2
     8     5     3    1
     9     3     1    1
    10     1     2    1
    11     1    14    1
    12    14    15    1
    13    15    16   ar
    14    16    17   ar
    15    17    18   ar
    16    18    19   ar
    17    19    20   ar
    18    19    21    1
    19    21    22    1
    20    22    23    1
    21    23    24    1
    22    24    25    1
    23     9    10   ar
    24    10    11   ar
    25    11     6   ar
    26    20    15   ar
    27    25    18    1
@<TRIPOS>MOLECULE
*****
 25 27 0 0 0
SMALL
GASTEIGER

@<TRIPOS>ATOM
      1 N         142.0915  139.9824  168.5773 N.3     1  UNL1       -0.2639
      2 C         142.8618  140.7076  169.6406 C.3     1  UNL1        0.0902
      3 C         142.8181  139.1677  167.5485 C.3     1  UNL1        0.0992
      4 C         143.2347  141.0786  165.8383 C.2     1  UNL1       -0.0032
      5 C         142.8945  139.6470  166.1293 C.2     1  UNL1       -0.0088
      6 C         143.4639  142.5166  161.5804 C.ar    1  UNL1        0.1387
      7 C         144.6739  142.5918  162.4636 C.ar    1  UNL1        0.0369
      8 C         144.5976  142.1125  163.8829 C.ar    1  UNL1        0.0031
      9 C         143.3111  141.5580  164.4190 C.ar    1  UNL1       -0.0001
     10 C         142.1010  141.4828  163.5359 C.ar    1  UNL1        0.0031
     11 C         142.1774  141.9621  162.1166 C.ar    1  UNL1        0.0369
     12 C         142.3665  143.6950  159.5415 C.3     1  UNL1        0.2525
     13 O         143.5402  142.9959  160.1611 O.3     1  UNL1       -0.4714
     14 C         140.5945  140.0719  168.5427 C.3     1  UNL1        0.0994
     15 C         139.9011  140.5657  167.3077 C.ar    1  UNL1       -0.0065
     16 C         139.0224  139.6397  166.5200 C.ar    1  UNL1       -0.0033
     17 C         138.3289  140.1335  165.2849 C.ar    1  UNL1       -0.0049
     18 C         138.5142  141.5532  164.8376 C.ar    1  UNL1       -0.0262
     19 C         139.3928  142.4791  165.6253 C.ar    1  UNL1       -0.0264
     20 C         140.0863  141.9854  166.8603 C.ar    1  UNL1       -0.0075
     21 C         139.7113  143.9202  165.3571 C.3     1  UNL1        0.0260
     22 C         139.2296  144.7912  164.2348 C.3     1  UNL1        0.0047
     23 C         138.3107  144.4363  163.1037 C.3     1  UNL1        0.0007
     24 C         137.6463  143.1227  162.8154 C.3     1  UNL1        0.0047
     25 C         137.7368  141.8396  163.5871 C.3     1  UNL1        0.0260
@<TRIPOS>BOND
     1    12    13    1
     2    13     6    1
     3     6     7   ar
     4     7     8   ar
     5     8     9   ar
     6     9     4    1
     7     4     5    2
     8     5     3    1
     9     3     1    1
    10     1     2    1
    11     1    14    1
    12    14    15    1
    13    15    16   ar
    14    16    17   ar
    15    17    18   ar
    16    18    19   ar
    17    19    20   ar
    18    19    21    1
    19    21    22    1
    20    22    23    1
    21    23    24    1
    22    24    25    1
    23     9    10   ar
    24    10    11   ar
    25    11     6   ar
    26    20    15   ar
    27    25    18    1
