@<TRIPOS>MOLECULE
*****
 31 34 0 0 0
SMALL
GASTEIGER

@<TRIPOS>ATOM
      1 C         141.4911  142.5147  165.9345 C.ar    1  UNL1        0.1222
      2 C         142.7493  142.5621  165.1192 C.ar    1  UNL1        0.0199
      3 C         142.7084  143.0619  163.7054 C.ar    1  UNL1        0.0014
      4 C         141.4095  143.5142  163.1070 C.ar    1  UNL1        0.0001
      5 C         140.1513  143.4668  163.9223 C.ar    1  UNL1        0.0014
      6 C         140.1921  142.9671  165.3360 C.ar    1  UNL1        0.0199
      7 C         141.3687  144.0139  161.6933 C.ar    1  UNL1       -0.0000
      8 C         142.3687  143.5154  160.6925 C.ar    1  UNL1       -0.0003
      9 C         142.3279  144.0151  159.2788 C.ar    1  UNL1       -0.0042
     10 C         141.2872  145.0133  158.8659 C.ar    1  UNL1       -0.0208
     11 C         140.2872  145.5118  159.8667 C.ar    1  UNL1       -0.0042
     12 C         140.3280  145.0121  161.2804 C.ar    1  UNL1       -0.0003
     13 C         141.2464  145.5130  157.4522 C.3     1  UNL1        0.0437
     14 C         139.9285  145.7040  156.7619 C.3     1  UNL1        0.0768
     15 N         139.6621  146.9614  155.9884 N.3     1  UNL1       -0.2737
     16 C         138.8540  148.1331  156.4616 C.3     1  UNL1        0.0721
     17 C         138.8496  149.1636  155.3717 C.3     1  UNL1        0.0187
     18 C         139.6552  148.6288  154.2248 C.3     1  UNL1        0.0174
     19 C         140.1573  147.2677  154.6060 C.3     1  UNL1        0.0576
     20 C         141.0056  146.3705  153.7544 C.3     1  UNL1        0.0173
     21 S         141.5318  142.0150  167.3482 S.O2    1  UNL1        0.0634
     22 O         140.1203  141.5251  167.2157 O.2     1  UNL1       -0.1528
     23 O         142.9433  142.5050  167.4807 O.2     1  UNL1       -0.1528
     24 C         140.4950  143.7343  169.5774 C.3     1  UNL1        0.0218
     25 C         141.0542  142.3749  169.8765 C.3     1  UNL1        0.1092
     26 C         141.0951  141.8752  171.2902 C.3     1  UNL1        0.1598
     27 O         141.6543  140.5159  171.5894 O.3     1  UNL1       -0.3508
     28 C         142.1727  139.6563  170.4748 C.3     1  UNL1        0.1598
     29 C         142.1319  140.1560  169.0611 C.3     1  UNL1        0.1092
     30 C         142.6503  139.2964  167.9465 C.3     1  UNL1        0.0218
     31 N         141.5726  141.5153  168.7620 N.3     1  UNL1       -0.1533
@<TRIPOS>BOND
     1    24    25    1
     2    25    26    1
     3    26    27    1
     4    27    28    1
     5    28    29    1
     6    29    30    1
     7    29    31    1
     8    31    21    1
     9    21    22    2
    10    21    23    2
    11    21     1    1
    12     1     2   ar
    13     2     3   ar
    14     3     4   ar
    15     4     7    1
    16     7     8   ar
    17     8     9   ar
    18     9    10   ar
    19    10    13    1
    20    13    14    1
    21    14    15    1
    22    15    16    1
    23    16    17    1
    24    17    18    1
    25    18    19    1
    26    19    20    1
    27    10    11   ar
    28    11    12   ar
    29     4     5   ar
    30     5     6   ar
    31    31    25    1
    32     6     1   ar
    33    12     7   ar
    34    19    15    1
@<TRIPOS>MOLECULE
*****
 31 34 0 0 0
SMALL
GASTEIGER

@<TRIPOS>ATOM
      1 C         141.4499  142.5633  165.6634 C.ar    1  UNL1        0.1222
      2 C         140.1687  143.1570  165.1574 C.ar    1  UNL1        0.0199
      3 C         140.0990  143.7169  163.7675 C.ar    1  UNL1        0.0014
      4 C         141.3105  143.6829  162.8837 C.ar    1  UNL1        0.0001
      5 C         142.5916  143.0891  163.3897 C.ar    1  UNL1        0.0014
      6 C         142.6614  142.5293  164.7795 C.ar    1  UNL1        0.0199
      7 C         141.2407  144.2427  161.4938 C.ar    1  UNL1       -0.0000
      8 C         140.3057  145.3748  161.1873 C.ar    1  UNL1       -0.0003
      9 C         140.2360  145.9346  159.7974 C.ar    1  UNL1       -0.0042
     10 C         141.1013  145.3623  158.7140 C.ar    1  UNL1       -0.0208
     11 C         142.0364  144.2302  159.0206 C.ar    1  UNL1       -0.0042
     12 C         142.1061  143.6704  160.4104 C.ar    1  UNL1       -0.0003
     13 C         141.0316  145.9221  157.3242 C.3     1  UNL1        0.0437
     14 C         139.7020  146.2602  156.7177 C.3     1  UNL1        0.0768
     15 N         139.5789  147.4273  155.7834 N.3     1  UNL1       -0.2737
     16 C         140.0566  147.4733  154.3622 C.3     1  UNL1        0.0721
     17 C         139.7294  148.8277  153.8068 C.3     1  UNL1        0.0187
     18 C         139.0495  149.6189  154.8847 C.3     1  UNL1        0.0174
     19 C         138.9565  148.7534  156.1063 C.3     1  UNL1        0.0576
     20 C         138.3479  149.1451  157.4201 C.3     1  UNL1        0.0173
     21 S         141.5196  142.0035  167.0533 S.O2    1  UNL1        0.0634
     22 O         142.9238  142.5133  167.1882 O.2     1  UNL1       -0.1528
     23 O         140.1154  141.4936  166.9184 O.2     1  UNL1       -0.1528
     24 C         142.7059  139.2876  167.5188 C.3     1  UNL1        0.0218
     25 C         142.1825  140.0857  168.6759 C.3     1  UNL1        0.1092
     26 C         142.2521  139.5259  170.0658 C.3     1  UNL1        0.1598
     27 O         141.7287  140.3241  171.2229 O.3     1  UNL1       -0.3508
     28 C         141.1355  141.6820  170.9902 C.3     1  UNL1        0.1598
     29 C         141.0659  142.2418  169.6003 C.3     1  UNL1        0.1092
     30 C         140.4727  143.5997  169.3676 C.3     1  UNL1        0.0218
     31 N         141.5893  141.4436  168.4432 N.3     1  UNL1       -0.1533
@<TRIPOS>BOND
     1    24    25    1
     2    25    26    1
     3    26    27    1
     4    27    28    1
     5    28    29    1
     6    29    30    1
     7    29    31    1
     8    31    21    1
     9    21    22    2
    10    21    23    2
    11    21     1    1
    12     1     2   ar
    13     2     3   ar
    14     3     4   ar
    15     4     7    1
    16     7     8   ar
    17     8     9   ar
    18     9    10   ar
    19    10    13    1
    20    13    14    1
    21    14    15    1
    22    15    16    1
    23    16    17    1
    24    17    18    1
    25    18    19    1
    26    19    20    1
    27    10    11   ar
    28    11    12   ar
    29     4     5   ar
    30     5     6   ar
    31    31    25    1
    32     6     1   ar
    33    12     7   ar
    34    19    15    1
@<TRIPOS>MOLECULE
*****
 31 34 0 0 0
SMALL
GASTEIGER

@<TRIPOS>ATOM
      1 C         141.5164  140.2200  165.9320 C.ar    1  UNL1        0.1222
      2 C         141.5154  138.7564  165.6036 C.ar    1  UNL1        0.0199
      3 C         141.5924  138.3085  164.1740 C.ar    1  UNL1        0.0014
      4 C         141.6704  139.3241  163.0730 C.ar    1  UNL1        0.0001
      5 C         141.6714  140.7877  163.4014 C.ar    1  UNL1        0.0014
      6 C         141.5944  141.2357  164.8309 C.ar    1  UNL1        0.0199
      7 C         141.7474  138.8762  161.6436 C.ar    1  UNL1       -0.0000
      8 C         140.6972  139.3096  160.6642 C.ar    1  UNL1       -0.0003
      9 C         140.7742  138.8616  159.2347 C.ar    1  UNL1       -0.0042
     10 C         141.9014  137.9802  158.7846 C.ar    1  UNL1       -0.0208
     11 C         142.9516  137.5468  159.7640 C.ar    1  UNL1       -0.0042
     12 C         142.8746  137.9947  161.1935 C.ar    1  UNL1       -0.0003
     13 C         141.9784  137.5322  157.3552 C.3     1  UNL1        0.0437
     14 C         142.9937  136.5075  156.9440 C.3     1  UNL1        0.0768
     15 N         142.5453  135.1675  156.4403 N.3     1  UNL1       -0.2737
     16 C         141.5062  134.9244  155.3862 C.3     1  UNL1        0.0721
     17 C         141.3760  133.4421  155.1968 C.3     1  UNL1        0.0187
     18 C         142.3347  132.7691  156.1339 C.3     1  UNL1        0.0174
     19 C         143.0573  133.8355  156.9024 C.3     1  UNL1        0.0576
     20 C         144.1076  133.6095  157.9492 C.3     1  UNL1        0.0173
     21 S         141.4394  140.6680  167.3614 S.O2    1  UNL1        0.0634
     22 O         140.1204  139.9693  167.5093 O.2     1  UNL1       -0.1528
     23 O         142.7585  141.3666  167.2135 O.2     1  UNL1       -0.1528
     24 C         140.1516  143.2900  168.0445 C.3     1  UNL1        0.0218
     25 C         140.7186  142.4270  169.1324 C.3     1  UNL1        0.1092
     26 C         140.6417  142.8749  170.5619 C.3     1  UNL1        0.1598
     27 O         141.2086  142.0118  171.6499 O.3     1  UNL1       -0.3508
     28 C         141.8525  140.7008  171.3084 C.3     1  UNL1        0.1598
     29 C         141.9294  140.2529  169.8789 C.3     1  UNL1        0.1092
     30 C         142.5734  138.9418  169.5374 C.3     1  UNL1        0.0218
     31 N         141.3625  141.1160  168.7910 N.3     1  UNL1       -0.1533
@<TRIPOS>BOND
     1    24    25    1
     2    25    26    1
     3    26    27    1
     4    27    28    1
     5    28    29    1
     6    29    30    1
     7    29    31    1
     8    31    21    1
     9    21    22    2
    10    21    23    2
    11    21     1    1
    12     1     2   ar
    13     2     3   ar
    14     3     4   ar
    15     4     7    1
    16     7     8   ar
    17     8     9   ar
    18     9    10   ar
    19    10    13    1
    20    13    14    1
    21    14    15    1
    22    15    16    1
    23    16    17    1
    24    17    18    1
    25    18    19    1
    26    19    20    1
    27    10    11   ar
    28    11    12   ar
    29     4     5   ar
    30     5     6   ar
    31    31    25    1
    32     6     1   ar
    33    12     7   ar
    34    19    15    1
@<TRIPOS>MOLECULE
*****
 31 34 0 0 0
SMALL
GASTEIGER

@<TRIPOS>ATOM
      1 C         141.5007  140.2275  166.0516 C.ar    1  UNL1        0.1222
      2 C         140.2767  140.2484  165.1848 C.ar    1  UNL1        0.0199
      3 C         140.3609  139.7956  163.7572 C.ar    1  UNL1        0.0014
      4 C         141.6690  139.3220  163.1965 C.ar    1  UNL1        0.0001
      5 C         142.8930  139.3011  164.0633 C.ar    1  UNL1        0.0014
      6 C         142.8089  139.7539  165.4908 C.ar    1  UNL1        0.0199
      7 C         141.7531  138.8693  161.7689 C.ar    1  UNL1       -0.0000
      8 C         142.9091  138.0276  161.3159 C.ar    1  UNL1       -0.0003
      9 C         142.9932  137.5748  159.8883 C.ar    1  UNL1       -0.0042
     10 C         141.9214  137.9639  158.9138 C.ar    1  UNL1       -0.0208
     11 C         140.7654  138.8056  159.3668 C.ar    1  UNL1       -0.0042
     12 C         140.6813  139.2583  160.7943 C.ar    1  UNL1       -0.0003
     13 C         142.0055  137.5111  157.4862 C.3     1  UNL1        0.0437
     14 C         143.0172  136.4789  157.0851 C.3     1  UNL1        0.0768
     15 N         142.5646  135.1629  156.5252 N.3     1  UNL1       -0.2737
     16 C         141.4936  134.9651  155.4939 C.3     1  UNL1        0.0721
     17 C         141.3706  133.4937  155.2297 C.3     1  UNL1        0.0187
     18 C         142.3657  132.7821  156.0977 C.3     1  UNL1        0.0174
     19 C         143.1036  133.8138  156.8984 C.3     1  UNL1        0.0576
     20 C         144.1899  133.5437  157.8970 C.3     1  UNL1        0.0173
     21 S         141.4166  140.6802  167.4792 S.O2    1  UNL1        0.0634
     22 O         142.7578  141.3393  167.3492 O.2     1  UNL1       -0.1528
     23 O         140.0754  140.0212  167.6091 O.2     1  UNL1       -0.1528
     24 C         142.5122  138.9475  169.6694 C.3     1  UNL1        0.0218
     25 C         141.8802  140.2666  170.0019 C.3     1  UNL1        0.1092
     26 C         141.7960  140.7193  171.4294 C.3     1  UNL1        0.1598
     27 O         141.1641  142.0384  171.7618 O.3     1  UNL1       -0.3508
     28 C         140.6162  142.9048  170.6668 C.3     1  UNL1        0.1598
     29 C         140.7004  142.4521  169.2392 C.3     1  UNL1        0.1092
     30 C         140.1526  143.3185  168.1441 C.3     1  UNL1        0.0218
     31 N         141.3324  141.1330  168.9068 N.3     1  UNL1       -0.1533
@<TRIPOS>BOND
     1    24    25    1
     2    25    26    1
     3    26    27    1
     4    27    28    1
     5    28    29    1
     6    29    30    1
     7    29    31    1
     8    31    21    1
     9    21    22    2
    10    21    23    2
    11    21     1    1
    12     1     2   ar
    13     2     3   ar
    14     3     4   ar
    15     4     7    1
    16     7     8   ar
    17     8     9   ar
    18     9    10   ar
    19    10    13    1
    20    13    14    1
    21    14    15    1
    22    15    16    1
    23    16    17    1
    24    17    18    1
    25    18    19    1
    26    19    20    1
    27    10    11   ar
    28    11    12   ar
    29     4     5   ar
    30     5     6   ar
    31    31    25    1
    32     6     1   ar
    33    12     7   ar
    34    19    15    1
@<TRIPOS>MOLECULE
*****
 31 34 0 0 0
SMALL
GASTEIGER

@<TRIPOS>ATOM
      1 C         141.0072  144.8564  158.9638 C.ar    1  UNL1        0.1222
      2 C         141.6209  143.5551  159.3881 C.ar    1  UNL1        0.0199
      3 C         141.5625  143.1319  160.8261 C.ar    1  UNL1        0.0014
      4 C         140.8906  144.0101  161.8396 C.ar    1  UNL1        0.0001
      5 C         140.2769  145.3114  161.4153 C.ar    1  UNL1        0.0014
      6 C         140.3352  145.7345  159.9774 C.ar    1  UNL1        0.0199
      7 C         140.8322  143.5869  163.2775 C.ar    1  UNL1       -0.0000
      8 C         142.0906  143.2027  163.9979 C.ar    1  UNL1       -0.0003
      9 C         142.0322  142.7795  165.4358 C.ar    1  UNL1       -0.0042
     10 C         140.7156  142.7405  166.1533 C.ar    1  UNL1       -0.0208
     11 C         139.4572  143.1247  165.4329 C.ar    1  UNL1       -0.0042
     12 C         139.5155  143.5479  163.9950 C.ar    1  UNL1       -0.0003
     13 C         140.6572  142.3174  167.5911 C.3     1  UNL1        0.0437
     14 C         140.5352  140.8638  167.9408 C.3     1  UNL1        0.0768
     15 N         140.1521  139.8683  166.8861 N.3     1  UNL1       -0.2737
     16 C         138.7549  139.4569  166.5279 C.3     1  UNL1        0.0721
     17 C         138.8383  138.4438  165.4249 C.3     1  UNL1        0.0187
     18 C         140.2872  138.2290  165.1014 C.3     1  UNL1        0.0174
     19 C         141.0992  139.1094  166.0045 C.3     1  UNL1        0.0576
     20 C         142.5955  139.2129  166.0227 C.3     1  UNL1        0.0173
     21 S         141.0655  145.2796  157.5260 S.O2    1  UNL1        0.0634
     22 O         139.9251  144.3584  157.2086 O.2     1  UNL1       -0.1528
     23 O         142.2060  146.2007  157.8433 O.2     1  UNL1       -0.1528
     24 C         139.2833  147.4807  156.5366 C.3     1  UNL1        0.0218
     25 C         140.2328  146.8033  155.5934 C.3     1  UNL1        0.1092
     26 C         140.2912  147.2265  154.1555 C.3     1  UNL1        0.1598
     27 O         141.2407  146.5491  153.2123 O.3     1  UNL1       -0.3508
     28 C         142.1317  145.4486  153.7070 C.3     1  UNL1        0.1598
     29 C         142.0734  145.0254  155.1448 C.3     1  UNL1        0.1092
     30 C         142.9645  143.9248  155.6395 C.3     1  UNL1        0.0218
     31 N         141.1239  145.7028  156.0880 N.3     1  UNL1       -0.1533
@<TRIPOS>BOND
     1    24    25    1
     2    25    26    1
     3    26    27    1
     4    27    28    1
     5    28    29    1
     6    29    30    1
     7    29    31    1
     8    31    21    1
     9    21    22    2
    10    21    23    2
    11    21     1    1
    12     1     2   ar
    13     2     3   ar
    14     3     4   ar
    15     4     7    1
    16     7     8   ar
    17     8     9   ar
    18     9    10   ar
    19    10    13    1
    20    13    14    1
    21    14    15    1
    22    15    16    1
    23    16    17    1
    24    17    18    1
    25    18    19    1
    26    19    20    1
    27    10    11   ar
    28    11    12   ar
    29     4     5   ar
    30     5     6   ar
    31    31    25    1
    32     6     1   ar
    33    12     7   ar
    34    19    15    1
@<TRIPOS>MOLECULE
*****
 31 34 0 0 0
SMALL
GASTEIGER

@<TRIPOS>ATOM
      1 C         141.4009  144.7842  158.9807 C.ar    1  UNL1        0.1222
      2 C         142.3711  143.6902  159.3154 C.ar    1  UNL1        0.0199
      3 C         142.5143  143.2227  160.7335 C.ar    1  UNL1        0.0014
      4 C         141.6873  143.8492  161.8168 C.ar    1  UNL1        0.0001
      5 C         140.7171  144.9431  161.4821 C.ar    1  UNL1        0.0014
      6 C         140.5739  145.4106  160.0641 C.ar    1  UNL1        0.0199
      7 C         141.8304  143.3816  163.2349 C.ar    1  UNL1       -0.0000
      8 C         140.6726  143.4932  164.1819 C.ar    1  UNL1       -0.0003
      9 C         140.8158  143.0256  165.6000 C.ar    1  UNL1       -0.0042
     10 C         142.1168  142.4465  166.0710 C.ar    1  UNL1       -0.0208
     11 C         143.2747  142.3350  165.1240 C.ar    1  UNL1       -0.0042
     12 C         143.1316  142.8025  163.7059 C.ar    1  UNL1       -0.0003
     13 C         142.2600  141.9790  167.4890 C.3     1  UNL1        0.0437
     14 C         141.8367  140.5906  167.8674 C.3     1  UNL1        0.0768
     15 N         140.8218  139.8632  167.0360 N.3     1  UNL1       -0.2737
     16 C         139.3376  139.8679  167.2529 C.3     1  UNL1        0.0721
     17 C         138.7115  139.0110  166.1928 C.3     1  UNL1        0.0187
     18 C         139.8088  138.4768  165.3207 C.3     1  UNL1        0.0174
     19 C         141.1130  139.0035  165.8418 C.3     1  UNL1        0.0576
     20 C         142.4702  138.7203  165.2693 C.3     1  UNL1        0.0173
     21 S         141.2578  145.2517  157.5626 S.O2    1  UNL1        0.0634
     22 O         142.3792  146.2259  157.7706 O.2     1  UNL1       -0.1528
     23 O         140.1363  144.2775  157.3547 O.2     1  UNL1       -0.1528
     24 C         142.9564  144.0424  155.4057 C.3     1  UNL1        0.0218
     25 C         141.9638  145.1146  155.0661 C.3     1  UNL1        0.1092
     26 C         141.8206  145.5821  153.6480 C.3     1  UNL1        0.1598
     27 O         140.8281  146.6543  153.3084 O.3     1  UNL1       -0.3508
     28 C         139.9788  147.2589  154.3869 C.3     1  UNL1        0.1598
     29 C         140.1220  146.7914  155.8049 C.3     1  UNL1        0.1092
     30 C         139.2727  147.3961  156.8834 C.3     1  UNL1        0.0218
     31 N         141.1146  145.7193  156.1445 N.3     1  UNL1       -0.1533
@<TRIPOS>BOND
     1    24    25    1
     2    25    26    1
     3    26    27    1
     4    27    28    1
     5    28    29    1
     6    29    30    1
     7    29    31    1
     8    31    21    1
     9    21    22    2
    10    21    23    2
    11    21     1    1
    12     1     2   ar
    13     2     3   ar
    14     3     4   ar
    15     4     7    1
    16     7     8   ar
    17     8     9   ar
    18     9    10   ar
    19    10    13    1
    20    13    14    1
    21    14    15    1
    22    15    16    1
    23    16    17    1
    24    17    18    1
    25    18    19    1
    26    19    20    1
    27    10    11   ar
    28    11    12   ar
    29     4     5   ar
    30     5     6   ar
    31    31    25    1
    32     6     1   ar
    33    12     7   ar
    34    19    15    1
@<TRIPOS>MOLECULE
*****
 31 34 0 0 0
SMALL
GASTEIGER

@<TRIPOS>ATOM
      1 C         142.1783  140.9493  165.9048 C.ar    1  UNL1        0.1222
      2 C         142.0165  142.1800  165.0625 C.ar    1  UNL1        0.0199
      3 C         142.3873  142.1484  163.6094 C.ar    1  UNL1        0.0014
      4 C         142.9198  140.8862  162.9985 C.ar    1  UNL1        0.0001
      5 C         143.0816  139.6555  163.8407 C.ar    1  UNL1        0.0014
      6 C         142.7109  139.6871  165.2938 C.ar    1  UNL1        0.0199
      7 C         143.2905  140.8546  161.5454 C.ar    1  UNL1       -0.0000
      8 C         143.1040  139.5961  160.7509 C.ar    1  UNL1       -0.0003
      9 C         143.4747  139.5645  159.2978 C.ar    1  UNL1       -0.0042
     10 C         144.0321  140.7915  158.6392 C.ar    1  UNL1       -0.0208
     11 C         144.2186  142.0501  159.4336 C.ar    1  UNL1       -0.0042
     12 C         143.8479  142.0817  160.8867 C.ar    1  UNL1       -0.0003
     13 C         144.4028  140.7600  157.1861 C.3     1  UNL1        0.0437
     14 C         144.9287  141.9964  156.5192 C.3     1  UNL1        0.0768
     15 N         146.3027  141.9972  155.9173 N.3     1  UNL1       -0.2737
     16 C         146.6758  141.4514  154.5709 C.3     1  UNL1        0.0721
     17 C         148.1484  141.6609  154.3776 C.3     1  UNL1        0.0187
     18 C         148.6856  142.3362  155.6047 C.3     1  UNL1        0.0174
     19 C         147.5448  142.5440  156.5562 C.3     1  UNL1        0.0576
     20 C         147.6310  143.1860  157.9091 C.3     1  UNL1        0.0173
     21 S         141.8076  140.9809  167.3578 S.O2    1  UNL1        0.0634
     22 O         141.1323  142.3051  167.1568 O.2     1  UNL1       -0.1528
     23 O         142.4829  139.6567  167.5589 O.2     1  UNL1       -0.1528
     24 C         143.6513  142.2601  169.3489 C.3     1  UNL1        0.0218
     25 C         142.3587  141.6520  169.8065 C.3     1  UNL1        0.1092
     26 C         141.9879  141.6835  171.2596 C.3     1  UNL1        0.1598
     27 O         140.6953  141.0754  171.7172 O.3     1  UNL1       -0.3508
     28 C         139.7735  140.4358  170.7217 C.3     1  UNL1        0.1598
     29 C         140.1442  140.4043  169.2686 C.3     1  UNL1        0.1092
     30 C         139.2224  139.7647  168.2730 C.3     1  UNL1        0.0218
     31 N         141.4368  141.0124  168.8110 N.3     1  UNL1       -0.1533
@<TRIPOS>BOND
     1    24    25    1
     2    25    26    1
     3    26    27    1
     4    27    28    1
     5    28    29    1
     6    29    30    1
     7    29    31    1
     8    31    21    1
     9    21    22    2
    10    21    23    2
    11    21     1    1
    12     1     2   ar
    13     2     3   ar
    14     3     4   ar
    15     4     7    1
    16     7     8   ar
    17     8     9   ar
    18     9    10   ar
    19    10    13    1
    20    13    14    1
    21    14    15    1
    22    15    16    1
    23    16    17    1
    24    17    18    1
    25    18    19    1
    26    19    20    1
    27    10    11   ar
    28    11    12   ar
    29     4     5   ar
    30     5     6   ar
    31    31    25    1
    32     6     1   ar
    33    12     7   ar
    34    19    15    1
@<TRIPOS>MOLECULE
*****
 31 34 0 0 0
SMALL
GASTEIGER

@<TRIPOS>ATOM
      1 C         139.9098  144.5059  158.0949 C.ar    1  UNL1        0.1222
      2 C         139.1992  143.1857  158.0464 C.ar    1  UNL1        0.0199
      3 C         138.9305  142.4317  159.3150 C.ar    1  UNL1        0.0014
      4 C         139.3723  142.9977  160.6319 C.ar    1  UNL1        0.0001
      5 C         140.0829  144.3178  160.6804 C.ar    1  UNL1        0.0014
      6 C         140.3516  145.0719  159.4119 C.ar    1  UNL1        0.0199
      7 C         139.1035  142.2436  161.9004 C.ar    1  UNL1       -0.0000
      8 C         139.8988  141.0139  162.2247 C.ar    1  UNL1       -0.0003
      9 C         139.6300  140.2598  163.4933 C.ar    1  UNL1       -0.0042
     10 C         138.5659  140.7354  164.4374 C.ar    1  UNL1       -0.0208
     11 C         137.7706  141.9652  164.1131 C.ar    1  UNL1       -0.0042
     12 C         138.0394  142.7193  162.8446 C.ar    1  UNL1       -0.0003
     13 C         138.2972  139.9814  165.7059 C.3     1  UNL1        0.0437
     14 C         139.4195  139.6905  166.6577 C.3     1  UNL1        0.0768
     15 N         139.6986  140.6262  167.7964 N.3     1  UNL1       -0.2737
     16 C         139.3179  140.4077  169.2308 C.3     1  UNL1        0.0721
     17 C         139.7915  141.5911  170.0215 C.3     1  UNL1        0.0187
     18 C         140.4649  142.5411  169.0758 C.3     1  UNL1        0.0174
     19 C         140.4075  141.9447  167.7007 C.3     1  UNL1        0.0576
     20 C         140.9617  142.5590  166.4495 C.3     1  UNL1        0.0173
     21 S         140.1786  145.2599  156.8264 S.O2    1  UNL1        0.0634
     22 O         141.3556  145.9281  157.4730 O.2     1  UNL1       -0.1528
     23 O         139.0016  144.5917  156.1798 O.2     1  UNL1       -0.1528
     24 C         138.8667  147.9162  156.3537 C.3     1  UNL1        0.0218
     25 C         139.7914  147.3421  155.3215 C.3     1  UNL1        0.1092
     26 C         140.0602  148.0961  154.0530 C.3     1  UNL1        0.1598
     27 O         140.9848  147.5221  153.0208 O.3     1  UNL1       -0.3508
     28 C         141.6408  146.1940  153.2571 C.3     1  UNL1        0.1598
     29 C         141.3720  145.4400  154.5256 C.3     1  UNL1        0.1092
     30 C         142.0279  144.1118  154.7620 C.3     1  UNL1        0.0218
     31 N         140.4473  146.0140  155.5578 N.3     1  UNL1       -0.1533
@<TRIPOS>BOND
     1    24    25    1
     2    25    26    1
     3    26    27    1
     4    27    28    1
     5    28    29    1
     6    29    30    1
     7    29    31    1
     8    31    21    1
     9    21    22    2
    10    21    23    2
    11    21     1    1
    12     1     2   ar
    13     2     3   ar
    14     3     4   ar
    15     4     7    1
    16     7     8   ar
    17     8     9   ar
    18     9    10   ar
    19    10    13    1
    20    13    14    1
    21    14    15    1
    22    15    16    1
    23    16    17    1
    24    17    18    1
    25    18    19    1
    26    19    20    1
    27    10    11   ar
    28    11    12   ar
    29     4     5   ar
    30     5     6   ar
    31    31    25    1
    32     6     1   ar
    33    12     7   ar
    34    19    15    1
@<TRIPOS>MOLECULE
*****
 31 34 0 0 0
SMALL
GASTEIGER

@<TRIPOS>ATOM
      1 C         141.5187  142.5805  165.8558 C.ar    1  UNL1        0.1222
      2 C         140.1787  142.8427  165.2346 C.ar    1  UNL1        0.0199
      3 C         140.0923  143.3817  163.8374 C.ar    1  UNL1        0.0014
      4 C         141.3457  143.6586  163.0615 C.ar    1  UNL1        0.0001
      5 C         142.6857  143.3964  163.6826 C.ar    1  UNL1        0.0014
      6 C         142.7722  142.8574  165.0797 C.ar    1  UNL1        0.0199
      7 C         141.2592  144.1976  161.6644 C.ar    1  UNL1       -0.0000
      8 C         140.3269  145.3309  161.3541 C.ar    1  UNL1       -0.0003
      9 C         140.2404  145.8699  159.9569 C.ar    1  UNL1       -0.0042
     10 C         141.0863  145.2756  158.8701 C.ar    1  UNL1       -0.0208
     11 C         142.0186  144.1422  159.1804 C.ar    1  UNL1       -0.0042
     12 C         142.1051  143.6032  160.5775 C.ar    1  UNL1       -0.0003
     13 C         140.9998  145.8146  157.4730 C.3     1  UNL1        0.0437
     14 C         140.7555  144.8826  156.3233 C.3     1  UNL1        0.0768
     15 N         139.3532  144.5010  155.9520 N.3     1  UNL1       -0.2737
     16 C         138.5052  145.1665  154.9089 C.3     1  UNL1        0.0721
     17 C         137.1805  144.4638  154.8709 C.3     1  UNL1        0.0187
     18 C         137.2099  143.3639  155.8904 C.3     1  UNL1        0.0174
     19 C         138.5526  143.3869  156.5586 C.3     1  UNL1        0.0576
     20 C         139.0138  142.4588  157.6429 C.3     1  UNL1        0.0173
     21 S         141.6052  142.0415  167.2529 S.O2    1  UNL1        0.0634
     22 O         143.0180  142.5347  167.3557 O.2     1  UNL1       -0.1528
     23 O         140.1923  141.5483  167.1501 O.2     1  UNL1       -0.1528
     24 C         140.6160  143.6858  169.5590 C.3     1  UNL1        0.0218
     25 C         141.1970  142.3246  169.8031 C.3     1  UNL1        0.1092
     26 C         141.2835  141.7855  171.2001 C.3     1  UNL1        0.1598
     27 O         141.8645  140.4244  171.4442 O.3     1  UNL1       -0.3508
     28 C         142.3591  139.6023  170.2912 C.3     1  UNL1        0.1598
     29 C         142.2727  140.1413  168.8941 C.3     1  UNL1        0.1092
     30 C         142.7673  139.3192  167.7410 C.3     1  UNL1        0.0218
     31 N         141.6916  141.5025  168.6501 N.3     1  UNL1       -0.1533
@<TRIPOS>BOND
     1    24    25    1
     2    25    26    1
     3    26    27    1
     4    27    28    1
     5    28    29    1
     6    29    30    1
     7    29    31    1
     8    31    21    1
     9    21    22    2
    10    21    23    2
    11    21     1    1
    12     1     2   ar
    13     2     3   ar
    14     3     4   ar
    15     4     7    1
    16     7     8   ar
    17     8     9   ar
    18     9    10   ar
    19    10    13    1
    20    13    14    1
    21    14    15    1
    22    15    16    1
    23    16    17    1
    24    17    18    1
    25    18    19    1
    26    19    20    1
    27    10    11   ar
    28    11    12   ar
    29     4     5   ar
    30     5     6   ar
    31    31    25    1
    32     6     1   ar
    33    12     7   ar
    34    19    15    1
