@<TRIPOS>MOLECULE
*****
 36 40 0 0 0
SMALL
GASTEIGER

@<TRIPOS>ATOM
      1 C         141.4289  144.7817  160.3087 C.3     1  UNL1        0.1565
      2 O         142.5646  144.0256  159.6852 O.3     1  UNL1       -0.3781
      3 C         140.2743  145.7289  160.4480 C.3     1  UNL1        0.0372
      4 C         139.5688  145.8630  161.7649 C.3     1  UNL1        0.0186
      5 C         140.0180  145.0498  162.9426 C.3     1  UNL1        0.0544
      6 C         141.1727  144.1025  162.8034 C.3     1  UNL1        0.0186
      7 C         141.8781  143.9684  161.4864 C.3     1  UNL1        0.0372
      8 H         142.6533  144.2848  158.7547 H       1  UNL1        0.2109
      9 N         140.1596  145.1025  158.0646 N.am    1  UNL1       -0.2809
     10 C         141.3741  145.3323  158.9146 C.2     1  UNL1        0.2502
     11 O         142.5336  146.1128  158.3703 O.2     1  UNL1       -0.2723
     12 H         139.3986  144.5902  158.4218 H       1  UNL1        0.1550
     13 C         137.8936  149.9961  158.4728 C.3     1  UNL1        0.0521
     14 C         138.4189  149.1857  157.3251 C.ar    1  UNL1        0.0594
     15 C         138.3641  149.7364  155.9309 C.ar    1  UNL1        0.0147
     16 C         138.8895  148.9259  154.7832 C.ar    1  UNL1        0.0027
     17 C         139.4697  147.5649  155.0297 C.ar    1  UNL1        0.0189
     18 C         139.9951  146.7544  153.8820 C.ar    1  UNL1        0.0016
     19 C         140.5753  145.3934  154.1285 C.ar    1  UNL1        0.0014
     20 C         140.6302  144.8427  155.5227 C.ar    1  UNL1        0.0162
     21 C         140.1048  145.6531  156.6704 C.ar    1  UNL1        0.0682
     22 C         139.5246  147.0142  156.4239 C.ar    1  UNL1        0.0943
     23 N         138.9992  147.8247  157.5716 N.ar    1  UNL1       -0.2484
     24 N         139.3125  145.1838  164.2596 N.3     1  UNL1       -0.2935
     25 H         138.9669  146.1420  164.3122 H       1  UNL1        0.1236
     26 C         138.1547  144.2874  164.5848 C.3     1  UNL1        0.1152
     27 C         138.1489  142.8660  164.1059 C.ar    1  UNL1        0.0782
     28 C         138.8902  141.8125  164.8745 C.ar    1  UNL1        0.0562
     29 C         138.8844  140.3911  164.3956 C.ar    1  UNL1        0.1752
     30 C         138.1373  140.0231  163.1480 C.ar    1  UNL1        0.1914
     31 C         137.3960  141.0764  162.3795 C.ar    1  UNL1        0.1384
     32 N         137.4018  142.4980  162.8584 N.ar    1  UNL1       -0.2434
     33 O         138.1315  138.6015  162.6691 O.3     1  UNL1       -0.4668
     34 C         138.8728  137.5482  163.4376 C.3     1  UNL1        0.2527
     35 C         139.6200  137.9161  164.6852 C.3     1  UNL1        0.2526
     36 O         139.6257  139.3376  165.1641 O.3     1  UNL1       -0.4683
@<TRIPOS>BOND
     1    13    14    1
     2    14    15   ar
     3    15    16   ar
     4    16    17   ar
     5    17    18   ar
     6    18    19   ar
     7    19    20   ar
     8    20    21   ar
     9    21     9    1
    10     9    10   am
    11    10    11    2
    12    10     1    1
    13     1     2    1
    14     1     3    1
    15     3     4    1
    16     4     5    1
    17     5    24    1
    18    24    26    1
    19    26    27    1
    20    27    28   ar
    21    28    29   ar
    22    29    30   ar
    23    30    31   ar
    24    31    32   ar
    25    30    33    1
    26    33    34    1
    27    34    35    1
    28    35    36    1
    29     5     6    1
    30     6     7    1
    31    21    22   ar
    32    22    23   ar
    33    23    14   ar
    34    22    17   ar
    35     7     1    1
    36    32    27   ar
    37    36    29    1
    38     9    12    1
    39     2     8    1
    40    24    25    1
@<TRIPOS>MOLECULE
*****
 36 40 0 0 0
SMALL
GASTEIGER

@<TRIPOS>ATOM
      1 C         143.1305  138.8417  160.7465 C.3     1  UNL1        0.1565
      2 O         142.8586  137.4836  161.3226 O.3     1  UNL1       -0.3781
      3 C         143.1250  139.9905  159.7822 C.3     1  UNL1        0.0372
      4 C         143.8237  141.2699  160.1358 C.3     1  UNL1        0.0186
      5 C         144.5280  141.4002  161.4538 C.3     1  UNL1        0.0544
      6 C         144.5336  140.2513  162.4181 C.3     1  UNL1        0.0186
      7 C         143.8348  138.9720  162.0645 C.3     1  UNL1        0.0372
      8 H         142.3347  136.9642  160.6928 H       1  UNL1        0.2109
      9 N         143.0071  137.8602  158.3441 N.am    1  UNL1       -0.2809
     10 C         142.3318  138.2397  159.6287 C.2     1  UNL1        0.2502
     11 O         140.8577  138.0171  159.7953 O.2     1  UNL1       -0.2723
     12 H         143.9745  138.0062  158.2347 H       1  UNL1        0.1550
     13 C         144.7372  132.7608  157.8414 C.3     1  UNL1        0.0521
     14 C         143.7057  133.5841  157.1287 C.ar    1  UNL1        0.0594
     15 C         142.9070  132.9822  156.0108 C.ar    1  UNL1        0.0147
     16 C         141.8754  133.8055  155.2981 C.ar    1  UNL1        0.0027
     17 C         141.6425  135.2308  155.7032 C.ar    1  UNL1        0.0189
     18 C         140.6109  136.0542  154.9905 C.ar    1  UNL1        0.0016
     19 C         140.3781  137.4795  155.3956 C.ar    1  UNL1        0.0014
     20 C         141.1768  138.0816  156.5135 C.ar    1  UNL1        0.0162
     21 C         142.2084  137.2582  157.2263 C.ar    1  UNL1        0.0682
     22 C         142.4412  135.8328  156.8211 C.ar    1  UNL1        0.0943
     23 N         143.4728  135.0095  157.5338 N.ar    1  UNL1       -0.2484
     24 N         145.2268  142.6796  161.8074 N.3     1  UNL1       -0.2935
     25 H         145.4726  143.1337  160.9278 H       1  UNL1        0.1236
     26 C         144.5283  143.7088  162.6457 C.3     1  UNL1        0.1152
     27 C         143.0525  143.9270  162.4902 C.ar    1  UNL1        0.0782
     28 C         142.1139  143.5159  163.5856 C.ar    1  UNL1        0.0562
     29 C         140.6381  143.7342  163.4301 C.ar    1  UNL1        0.1752
     30 C         140.1008  144.3637  162.1789 C.ar    1  UNL1        0.1914
     31 C         141.0393  144.7748  161.0835 C.ar    1  UNL1        0.1384
     32 N         142.5153  144.5565  161.2391 N.ar    1  UNL1       -0.2434
     33 O         138.6249  144.5819  162.0234 O.3     1  UNL1       -0.4668
     34 C         137.6864  144.1708  163.1188 C.3     1  UNL1        0.2527
     35 C         138.2236  143.5414  164.3699 C.3     1  UNL1        0.2526
     36 O         139.6995  143.3231  164.5255 O.3     1  UNL1       -0.4683
@<TRIPOS>BOND
     1    13    14    1
     2    14    15   ar
     3    15    16   ar
     4    16    17   ar
     5    17    18   ar
     6    18    19   ar
     7    19    20   ar
     8    20    21   ar
     9    21     9    1
    10     9    10   am
    11    10    11    2
    12    10     1    1
    13     1     2    1
    14     1     3    1
    15     3     4    1
    16     4     5    1
    17     5    24    1
    18    24    26    1
    19    26    27    1
    20    27    28   ar
    21    28    29   ar
    22    29    30   ar
    23    30    31   ar
    24    31    32   ar
    25    30    33    1
    26    33    34    1
    27    34    35    1
    28    35    36    1
    29     5     6    1
    30     6     7    1
    31    21    22   ar
    32    22    23   ar
    33    23    14   ar
    34    22    17   ar
    35     7     1    1
    36    32    27   ar
    37    36    29    1
    38     9    12    1
    39     2     8    1
    40    24    25    1
@<TRIPOS>MOLECULE
*****
 36 40 0 0 0
SMALL
GASTEIGER

@<TRIPOS>ATOM
      1 C         140.1028  138.5555  161.0165 C.3     1  UNL1        0.1565
      2 O         138.6672  138.9499  161.1996 O.3     1  UNL1       -0.3781
      3 C         141.5093  138.1579  161.3535 C.3     1  UNL1        0.0372
      4 C         142.5009  137.9065  160.2564 C.3     1  UNL1        0.0186
      5 C         142.0860  138.0527  158.8224 C.3     1  UNL1        0.0544
      6 C         140.6794  138.4503  158.4854 C.3     1  UNL1        0.0186
      7 C         139.6878  138.7017  159.5824 C.3     1  UNL1        0.0372
      8 H         138.4603  138.9868  162.1466 H       1  UNL1        0.2109
      9 N         139.5732  139.7762  163.2480 N.am    1  UNL1       -0.2809
     10 C         140.0192  138.5463  162.5141 C.2     1  UNL1        0.2502
     11 O         140.3816  137.3072  163.2779 O.2     1  UNL1       -0.2723
     12 H         139.3354  140.5894  162.7467 H       1  UNL1        0.1550
     13 C         143.8718  142.5469  165.0073 C.3     1  UNL1        0.0521
     14 C         142.7345  141.8473  165.6907 C.ar    1  UNL1        0.0594
     15 C         142.6509  141.8381  167.1883 C.ar    1  UNL1        0.0147
     16 C         141.5135  141.1385  167.8717 C.ar    1  UNL1        0.0027
     17 C         140.4598  140.4481  167.0575 C.ar    1  UNL1        0.0189
     18 C         139.3225  139.7485  167.7409 C.ar    1  UNL1        0.0016
     19 C         138.2688  139.0581  166.9267 C.ar    1  UNL1        0.0014
     20 C         138.3523  139.0673  165.4290 C.ar    1  UNL1        0.0162
     21 C         139.4896  139.7669  164.7456 C.ar    1  UNL1        0.0682
     22 C         140.5434  140.4573  165.5599 C.ar    1  UNL1        0.0943
     23 N         141.6807  141.1569  164.8765 N.ar    1  UNL1       -0.2484
     24 N         143.0776  137.8013  157.7253 N.3     1  UNL1       -0.2935
     25 H         143.8327  137.2491  158.1318 H       1  UNL1        0.1236
     26 C         142.6486  137.0936  156.4743 C.3     1  UNL1        0.1152
     27 C         142.6344  135.5944  156.4279 C.ar    1  UNL1        0.0782
     28 C         143.6595  134.8106  157.1926 C.ar    1  UNL1        0.0562
     29 C         143.6453  133.3114  157.1462 C.ar    1  UNL1        0.1752
     30 C         142.6059  132.5960  156.3350 C.ar    1  UNL1        0.1914
     31 C         141.5808  133.3798  155.5704 C.ar    1  UNL1        0.1384
     32 N         141.5950  134.8791  155.6168 N.ar    1  UNL1       -0.2434
     33 O         142.5917  131.0967  156.2887 O.3     1  UNL1       -0.4668
     34 C         143.6167  130.3130  157.0533 C.3     1  UNL1        0.2527
     35 C         144.6562  131.0283  157.8645 C.3     1  UNL1        0.2526
     36 O         144.6704  132.5275  157.9109 O.3     1  UNL1       -0.4683
@<TRIPOS>BOND
     1    13    14    1
     2    14    15   ar
     3    15    16   ar
     4    16    17   ar
     5    17    18   ar
     6    18    19   ar
     7    19    20   ar
     8    20    21   ar
     9    21     9    1
    10     9    10   am
    11    10    11    2
    12    10     1    1
    13     1     2    1
    14     1     3    1
    15     3     4    1
    16     4     5    1
    17     5    24    1
    18    24    26    1
    19    26    27    1
    20    27    28   ar
    21    28    29   ar
    22    29    30   ar
    23    30    31   ar
    24    31    32   ar
    25    30    33    1
    26    33    34    1
    27    34    35    1
    28    35    36    1
    29     5     6    1
    30     6     7    1
    31    21    22   ar
    32    22    23   ar
    33    23    14   ar
    34    22    17   ar
    35     7     1    1
    36    32    27   ar
    37    36    29    1
    38     9    12    1
    39     2     8    1
    40    24    25    1
@<TRIPOS>MOLECULE
*****
 36 40 0 0 0
SMALL
GASTEIGER

@<TRIPOS>ATOM
      1 C         138.9491  142.9993  158.8700 C.3     1  UNL1        0.1565
      2 O         139.7265  144.2819  158.8424 O.3     1  UNL1       -0.3781
      3 C         138.3010  141.7550  159.4008 C.3     1  UNL1        0.0372
      4 C         137.5506  140.8460  158.4731 C.3     1  UNL1        0.0186
      5 C         137.4481  141.1814  157.0146 C.3     1  UNL1        0.0544
      6 C         138.0961  142.4257  156.4839 C.3     1  UNL1        0.0186
      7 C         138.8466  143.3347  157.4115 C.3     1  UNL1        0.0372
      8 H         140.0410  144.4886  159.7364 H       1  UNL1        0.2109
      9 N         138.2494  143.1738  161.3660 N.am    1  UNL1       -0.2809
     10 C         139.3215  143.1093  160.3188 C.2     1  UNL1        0.2502
     11 O         140.7660  143.1549  160.7206 O.2     1  UNL1       -0.2723
     12 H         137.3013  143.1439  161.1023 H       1  UNL1        0.1550
     13 C         138.6309  138.1024  163.2060 C.3     1  UNL1        0.0521
     14 C         138.8149  139.4528  163.8326 C.ar    1  UNL1        0.0594
     15 C         139.1873  139.5628  165.2815 C.ar    1  UNL1        0.0147
     16 C         139.3712  140.9132  165.9081 C.ar    1  UNL1        0.0027
     17 C         139.1827  142.1535  165.0859 C.ar    1  UNL1        0.0189
     18 C         139.3666  143.5039  165.7126 C.ar    1  UNL1        0.0016
     19 C         139.1781  144.7442  164.8904 C.ar    1  UNL1        0.0014
     20 C         138.8057  144.6342  163.4415 C.ar    1  UNL1        0.0162
     21 C         138.6218  143.2838  162.8148 C.ar    1  UNL1        0.0682
     22 C         138.8103  142.0435  163.6371 C.ar    1  UNL1        0.0943
     23 N         138.6264  140.6931  163.0104 N.ar    1  UNL1       -0.2484
     24 N         136.6976  140.2724  156.0870 N.3     1  UNL1       -0.2935
     25 H         136.5181  139.4100  156.6012 H       1  UNL1        0.1236
     26 C         135.3863  140.7109  155.5055 C.3     1  UNL1        0.1152
     27 C         134.1005  140.2916  156.1542 C.ar    1  UNL1        0.0782
     28 C         132.7954  140.8355  155.6532 C.ar    1  UNL1        0.0562
     29 C         131.5096  140.4162  156.3019 C.ar    1  UNL1        0.1752
     30 C         131.5289  139.4529  157.4516 C.ar    1  UNL1        0.1914
     31 C         132.8339  138.9090  157.9526 C.ar    1  UNL1        0.1384
     32 N         134.1198  139.3283  157.3039 N.ar    1  UNL1       -0.2434
     33 O         130.2430  139.0336  158.1003 O.3     1  UNL1       -0.4668
     34 C         128.9380  139.5775  157.5993 C.3     1  UNL1        0.2527
     35 C         128.9187  140.5407  156.4496 C.3     1  UNL1        0.2526
     36 O         130.2045  140.9600  155.8009 O.3     1  UNL1       -0.4683
@<TRIPOS>BOND
     1    13    14    1
     2    14    15   ar
     3    15    16   ar
     4    16    17   ar
     5    17    18   ar
     6    18    19   ar
     7    19    20   ar
     8    20    21   ar
     9    21     9    1
    10     9    10   am
    11    10    11    2
    12    10     1    1
    13     1     2    1
    14     1     3    1
    15     3     4    1
    16     4     5    1
    17     5    24    1
    18    24    26    1
    19    26    27    1
    20    27    28   ar
    21    28    29   ar
    22    29    30   ar
    23    30    31   ar
    24    31    32   ar
    25    30    33    1
    26    33    34    1
    27    34    35    1
    28    35    36    1
    29     5     6    1
    30     6     7    1
    31    21    22   ar
    32    22    23   ar
    33    23    14   ar
    34    22    17   ar
    35     7     1    1
    36    32    27   ar
    37    36    29    1
    38     9    12    1
    39     2     8    1
    40    24    25    1
@<TRIPOS>MOLECULE
*****
 36 40 0 0 0
SMALL
GASTEIGER

@<TRIPOS>ATOM
      1 C         140.8295  138.6028  161.2154 C.3     1  UNL1        0.1565
      2 O         139.4960  139.1206  161.6668 O.3     1  UNL1       -0.3781
      3 C         142.2366  138.0872  161.2796 C.3     1  UNL1        0.0372
      4 C         142.9685  137.7452  160.0158 C.3     1  UNL1        0.0186
      5 C         142.2933  137.9189  158.6876 C.3     1  UNL1        0.0544
      6 C         140.8862  138.4345  158.6234 C.3     1  UNL1        0.0186
      7 C         140.1543  138.7765  159.8872 C.3     1  UNL1        0.0372
      8 H         139.4833  139.1804  162.6349 H       1  UNL1        0.2109
      9 N         142.0918  139.4936  163.3042 N.am    1  UNL1       -0.2809
     10 C         141.0416  138.6090  162.7002 C.2     1  UNL1        0.2502
     11 O         140.2036  137.7306  163.5812 O.2     1  UNL1       -0.2723
     12 H         142.6419  140.0701  162.7260 H       1  UNL1        0.1550
     13 C         139.4437  143.8202  165.1797 C.3     1  UNL1        0.0521
     14 C         140.2649  142.7432  165.8245 C.ar    1  UNL1        0.0594
     15 C         140.4770  142.7494  167.3094 C.ar    1  UNL1        0.0147
     16 C         141.2981  141.6723  167.9542 C.ar    1  UNL1        0.0027
     17 C         141.9071  140.5892  167.1141 C.ar    1  UNL1        0.0189
     18 C         142.7282  139.5121  167.7589 C.ar    1  UNL1        0.0016
     19 C         143.3372  138.4289  166.9188 C.ar    1  UNL1        0.0014
     20 C         143.1251  138.4227  165.4339 C.ar    1  UNL1        0.0162
     21 C         142.3040  139.4998  164.7891 C.ar    1  UNL1        0.0682
     22 C         141.6950  140.5830  165.6292 C.ar    1  UNL1        0.0943
     23 N         140.8738  141.6600  164.9844 N.ar    1  UNL1       -0.2484
     24 N         143.0252  137.5769  157.4238 N.3     1  UNL1       -0.2935
     25 H         143.8558  137.0519  157.6974 H       1  UNL1        0.1236
     26 C         142.3414  136.7786  156.3537 C.3     1  UNL1        0.1152
     27 C         142.4529  135.2828  156.3469 C.ar    1  UNL1        0.0782
     28 C         143.5102  134.6057  157.1675 C.ar    1  UNL1        0.0562
     29 C         143.6217  133.1099  157.1607 C.ar    1  UNL1        0.1752
     30 C         142.6756  132.2911  156.3331 C.ar    1  UNL1        0.1914
     31 C         141.6183  132.9681  155.5125 C.ar    1  UNL1        0.1384
     32 N         141.5069  134.4641  155.5193 N.ar    1  UNL1       -0.2434
     33 O         142.7871  130.7952  156.3264 O.3     1  UNL1       -0.4668
     34 C         143.8444  130.1182  157.1470 C.3     1  UNL1        0.2527
     35 C         144.7905  130.9369  157.9745 C.3     1  UNL1        0.2526
     36 O         144.6790  132.4327  157.9813 O.3     1  UNL1       -0.4683
@<TRIPOS>BOND
     1    13    14    1
     2    14    15   ar
     3    15    16   ar
     4    16    17   ar
     5    17    18   ar
     6    18    19   ar
     7    19    20   ar
     8    20    21   ar
     9    21     9    1
    10     9    10   am
    11    10    11    2
    12    10     1    1
    13     1     2    1
    14     1     3    1
    15     3     4    1
    16     4     5    1
    17     5    24    1
    18    24    26    1
    19    26    27    1
    20    27    28   ar
    21    28    29   ar
    22    29    30   ar
    23    30    31   ar
    24    31    32   ar
    25    30    33    1
    26    33    34    1
    27    34    35    1
    28    35    36    1
    29     5     6    1
    30     6     7    1
    31    21    22   ar
    32    22    23   ar
    33    23    14   ar
    34    22    17   ar
    35     7     1    1
    36    32    27   ar
    37    36    29    1
    38     9    12    1
    39     2     8    1
    40    24    25    1
@<TRIPOS>MOLECULE
*****
 36 40 0 0 0
SMALL
GASTEIGER

@<TRIPOS>ATOM
      1 C         141.5097  138.3193  161.3683 C.3     1  UNL1        0.1565
      2 O         142.4945  138.1850  162.4917 O.3     1  UNL1       -0.3781
      3 C         140.2174  138.5692  160.6491 C.3     1  UNL1        0.0372
      4 C         140.1526  138.4395  159.1561 C.3     1  UNL1        0.0186
      5 C         141.3803  138.0600  158.3823 C.3     1  UNL1        0.0544
      6 C         142.6727  137.8101  159.1015 C.3     1  UNL1        0.0186
      7 C         142.7374  137.9397  160.5945 C.3     1  UNL1        0.0372
      8 H         142.0526  138.3766  163.3337 H       1  UNL1        0.2109
      9 N         140.9458  138.1180  163.8964 N.am    1  UNL1       -0.2809
     10 C         140.6240  138.6522  162.5322 C.2     1  UNL1        0.2502
     11 O         139.4166  139.5194  162.3319 O.2     1  UNL1       -0.2723
     12 H         141.7383  137.5489  164.0279 H       1  UNL1        0.1550
     13 C         143.3040  142.2699  166.4363 C.3     1  UNL1        0.0521
     14 C         142.0502  141.4816  166.6743 C.ar    1  UNL1        0.0594
     15 C         141.1646  141.8146  167.8382 C.ar    1  UNL1        0.0147
     16 C         139.9107  141.0263  168.0761 C.ar    1  UNL1        0.0027
     17 C         139.5426  139.9051  167.1502 C.ar    1  UNL1        0.0189
     18 C         138.2888  139.1169  167.3882 C.ar    1  UNL1        0.0016
     19 C         137.9207  137.9957  166.4623 C.ar    1  UNL1        0.0014
     20 C         138.8064  137.6627  165.2983 C.ar    1  UNL1        0.0162
     21 C         140.0602  138.4510  165.0603 C.ar    1  UNL1        0.0682
     22 C         140.4283  139.5722  165.9863 C.ar    1  UNL1        0.0943
     23 N         141.6821  140.3605  165.7483 N.ar    1  UNL1       -0.2484
     24 N         141.3156  137.9303  156.8893 N.3     1  UNL1       -0.2935
     25 H         141.2963  138.8778  156.5121 H       1  UNL1        0.1236
     26 C         142.3946  137.1930  156.1531 C.3     1  UNL1        0.1152
     27 C         142.4308  135.6937  156.1795 C.ar    1  UNL1        0.0782
     28 C         143.4903  134.9828  156.9683 C.ar    1  UNL1        0.0562
     29 C         143.5266  133.4835  156.9948 C.ar    1  UNL1        0.1752
     30 C         142.5032  132.6950  156.2324 C.ar    1  UNL1        0.1914
     31 C         141.4438  133.4058  155.4436 C.ar    1  UNL1        0.1384
     32 N         141.4075  134.9052  155.4171 N.ar    1  UNL1       -0.2434
     33 O         142.5395  131.1956  156.2588 O.3     1  UNL1       -0.4668
     34 C         143.5990  130.4849  157.0476 C.3     1  UNL1        0.2527
     35 C         144.6223  131.2733  157.8100 C.3     1  UNL1        0.2526
     36 O         144.5860  132.7726  157.7835 O.3     1  UNL1       -0.4683
@<TRIPOS>BOND
     1    13    14    1
     2    14    15   ar
     3    15    16   ar
     4    16    17   ar
     5    17    18   ar
     6    18    19   ar
     7    19    20   ar
     8    20    21   ar
     9    21     9    1
    10     9    10   am
    11    10    11    2
    12    10     1    1
    13     1     2    1
    14     1     3    1
    15     3     4    1
    16     4     5    1
    17     5    24    1
    18    24    26    1
    19    26    27    1
    20    27    28   ar
    21    28    29   ar
    22    29    30   ar
    23    30    31   ar
    24    31    32   ar
    25    30    33    1
    26    33    34    1
    27    34    35    1
    28    35    36    1
    29     5     6    1
    30     6     7    1
    31    21    22   ar
    32    22    23   ar
    33    23    14   ar
    34    22    17   ar
    35     7     1    1
    36    32    27   ar
    37    36    29    1
    38     9    12    1
    39     2     8    1
    40    24    25    1
@<TRIPOS>MOLECULE
*****
 36 40 0 0 0
SMALL
GASTEIGER

@<TRIPOS>ATOM
      1 C         142.5461  144.4427  162.1693 C.3     1  UNL1        0.1565
      2 O         141.7620  145.6131  162.6843 O.3     1  UNL1       -0.3781
      3 C         143.0480  143.3853  161.2312 C.3     1  UNL1        0.0372
      4 C         144.0901  142.4088  161.6901 C.3     1  UNL1        0.0186
      5 C         144.6301  142.4897  163.0873 C.3     1  UNL1        0.0544
      6 C         144.1282  143.5470  164.0253 C.3     1  UNL1        0.0186
      7 C         143.0862  144.5235  163.5664 C.3     1  UNL1        0.0372
      8 H         141.1743  145.9412  161.9858 H       1  UNL1        0.2109
      9 N         142.2226  144.3609  159.5927 N.am    1  UNL1       -0.2809
     10 C         141.7337  144.7683  160.9511 C.2     1  UNL1        0.2502
     11 O         140.4325  145.5012  161.0912 O.2     1  UNL1       -0.2723
     12 H         143.0766  143.8799  159.5007 H       1  UNL1        0.1550
     13 C         138.2659  140.6789  159.4001 C.3     1  UNL1        0.0521
     14 C         138.6458  141.8436  158.5346 C.ar    1  UNL1        0.0594
     15 C         137.8335  142.1692  157.3164 C.ar    1  UNL1        0.0147
     16 C         138.2134  143.3339  156.4509 C.ar    1  UNL1        0.0027
     17 C         139.4056  144.1730  156.8036 C.ar    1  UNL1        0.0189
     18 C         139.7855  145.3377  155.9381 C.ar    1  UNL1        0.0016
     19 C         140.9777  146.1768  156.2907 C.ar    1  UNL1        0.0014
     20 C         141.7902  145.8512  157.5090 C.ar    1  UNL1        0.0162
     21 C         141.4103  144.6865  158.3745 C.ar    1  UNL1        0.0682
     22 C         140.2180  143.8474  158.0218 C.ar    1  UNL1        0.0943
     23 N         139.8381  142.6827  158.8873 N.ar    1  UNL1       -0.2484
     24 N         145.6721  141.5132  163.5462 N.3     1  UNL1       -0.2935
     25 H         146.2453  141.9973  164.2373 H       1  UNL1        0.1236
     26 C         145.2588  140.2099  164.1630 C.3     1  UNL1        0.1152
     27 C         144.0115  139.5207  163.6948 C.ar    1  UNL1        0.0782
     28 C         142.7345  139.6750  164.4664 C.ar    1  UNL1        0.0562
     29 C         141.4872  138.9858  163.9983 C.ar    1  UNL1        0.1752
     30 C         141.5170  138.1422  162.7583 C.ar    1  UNL1        0.1914
     31 C         142.7938  137.9878  161.9866 C.ar    1  UNL1        0.1384
     32 N         144.0412  138.6770  162.4548 N.ar    1  UNL1       -0.2434
     33 O         140.2696  137.4529  162.2901 O.3     1  UNL1       -0.4668
     34 C         138.9927  137.6073  163.0618 C.3     1  UNL1        0.2527
     35 C         138.9630  138.4510  164.3017 C.3     1  UNL1        0.2526
     36 O         140.2103  139.1402  164.7699 O.3     1  UNL1       -0.4683
@<TRIPOS>BOND
     1    13    14    1
     2    14    15   ar
     3    15    16   ar
     4    16    17   ar
     5    17    18   ar
     6    18    19   ar
     7    19    20   ar
     8    20    21   ar
     9    21     9    1
    10     9    10   am
    11    10    11    2
    12    10     1    1
    13     1     2    1
    14     1     3    1
    15     3     4    1
    16     4     5    1
    17     5    24    1
    18    24    26    1
    19    26    27    1
    20    27    28   ar
    21    28    29   ar
    22    29    30   ar
    23    30    31   ar
    24    31    32   ar
    25    30    33    1
    26    33    34    1
    27    34    35    1
    28    35    36    1
    29     5     6    1
    30     6     7    1
    31    21    22   ar
    32    22    23   ar
    33    23    14   ar
    34    22    17   ar
    35     7     1    1
    36    32    27   ar
    37    36    29    1
    38     9    12    1
    39     2     8    1
    40    24    25    1
@<TRIPOS>MOLECULE
*****
 36 40 0 0 0
SMALL
GASTEIGER

@<TRIPOS>ATOM
      1 C         141.2577  137.8412  162.1118 C.3     1  UNL1        0.1565
      2 O         142.7046  137.6837  161.7488 O.3     1  UNL1       -0.3781
      3 C         139.7856  138.0866  161.9620 C.3     1  UNL1        0.0372
      4 C         138.8888  138.0243  163.1628 C.3     1  UNL1        0.0186
      5 C         139.4643  137.7168  164.5135 C.3     1  UNL1        0.0544
      6 C         140.9365  137.4714  164.6633 C.3     1  UNL1        0.0186
      7 C         141.8332  137.5336  163.4625 C.3     1  UNL1        0.0372
      8 H         142.8158  137.8232  160.7953 H       1  UNL1        0.2109
      9 N         142.4289  138.0254  159.8000 N.am    1  UNL1       -0.2809
     10 C         141.1847  138.0941  160.6351 C.2     1  UNL1        0.2502
     11 O         139.8676  138.4155  159.9935 O.2     1  UNL1       -0.2723
     12 H         143.2934  137.8144  160.2212 H       1  UNL1        0.1550
     13 C         143.8497  133.3857  157.4117 C.3     1  UNL1        0.0521
     14 C         143.4397  134.7353  156.9013 C.ar    1  UNL1        0.0594
     15 C         143.3667  134.9881  155.4246 C.ar    1  UNL1        0.0147
     16 C         142.9568  136.3377  154.9141 C.ar    1  UNL1        0.0027
     17 C         142.6199  137.4344  155.8803 C.ar    1  UNL1        0.0189
     18 C         142.2099  138.7840  155.3698 C.ar    1  UNL1        0.0016
     19 C         141.8730  139.8807  156.3361 C.ar    1  UNL1        0.0014
     20 C         141.9460  139.6279  157.8128 C.ar    1  UNL1        0.0162
     21 C         142.3559  138.2783  158.3233 C.ar    1  UNL1        0.0682
     22 C         142.6929  137.1816  157.3570 C.ar    1  UNL1        0.0943
     23 N         143.1028  135.8320  157.8675 N.ar    1  UNL1       -0.2484
     24 N         138.5676  137.6545  165.7143 N.3     1  UNL1       -0.2935
     25 H         139.0690  137.1275  166.4293 H       1  UNL1        0.1236
     26 C         138.0935  138.9213  166.3628 C.3     1  UNL1        0.1152
     27 C         138.9466  139.6019  167.3919 C.ar    1  UNL1        0.0782
     28 C         140.2256  140.2703  166.9829 C.ar    1  UNL1        0.0562
     29 C         141.0787  140.9509  168.0119 C.ar    1  UNL1        0.1752
     30 C         140.6526  140.9631  169.4501 C.ar    1  UNL1        0.1914
     31 C         139.3737  140.2948  169.8592 C.ar    1  UNL1        0.1384
     32 N         138.5206  139.6141  168.8301 N.ar    1  UNL1       -0.2434
     33 O         141.5058  141.6438  170.4792 O.3     1  UNL1       -0.4668
     34 C         142.7847  142.3121  170.0702 C.3     1  UNL1        0.2527
     35 C         143.2108  142.2999  168.6320 C.3     1  UNL1        0.2526
     36 O         142.3577  141.6193  167.6029 O.3     1  UNL1       -0.4683
@<TRIPOS>BOND
     1    13    14    1
     2    14    15   ar
     3    15    16   ar
     4    16    17   ar
     5    17    18   ar
     6    18    19   ar
     7    19    20   ar
     8    20    21   ar
     9    21     9    1
    10     9    10   am
    11    10    11    2
    12    10     1    1
    13     1     2    1
    14     1     3    1
    15     3     4    1
    16     4     5    1
    17     5    24    1
    18    24    26    1
    19    26    27    1
    20    27    28   ar
    21    28    29   ar
    22    29    30   ar
    23    30    31   ar
    24    31    32   ar
    25    30    33    1
    26    33    34    1
    27    34    35    1
    28    35    36    1
    29     5     6    1
    30     6     7    1
    31    21    22   ar
    32    22    23   ar
    33    23    14   ar
    34    22    17   ar
    35     7     1    1
    36    32    27   ar
    37    36    29    1
    38     9    12    1
    39     2     8    1
    40    24    25    1
@<TRIPOS>MOLECULE
*****
 36 40 0 0 0
SMALL
GASTEIGER

@<TRIPOS>ATOM
      1 C         141.3214  137.8846  161.9448 C.3     1  UNL1        0.1565
      2 O         142.7928  137.8404  161.6565 O.3     1  UNL1       -0.3781
      3 C         139.8440  138.0112  161.7187 C.3     1  UNL1        0.0372
      4 C         138.8950  137.8852  162.8736 C.3     1  UNL1        0.0186
      5 C         139.4236  137.6325  164.2545 C.3     1  UNL1        0.0544
      6 C         140.9010  137.5059  164.4805 C.3     1  UNL1        0.0186
      7 C         141.8499  137.6319  163.3257 C.3     1  UNL1        0.0372
      8 H         142.9409  137.9826  160.7084 H       1  UNL1        0.2109
      9 N         142.5743  138.0205  159.6728 N.am    1  UNL1       -0.2809
     10 C         141.3038  138.1220  160.4638 C.2     1  UNL1        0.2502
     11 O         140.0158  138.4608  159.7737 O.2     1  UNL1       -0.2723
     12 H         143.4197  137.7981  160.1257 H       1  UNL1        0.1550
     13 C         143.4475  133.2047  157.3715 C.3     1  UNL1        0.0521
     14 C         143.2160  134.5867  156.8361 C.ar    1  UNL1        0.0594
     15 C         143.1985  134.8240  155.3551 C.ar    1  UNL1        0.0147
     16 C         142.9670  136.2060  154.8197 C.ar    1  UNL1        0.0027
     17 C         142.7531  137.3505  155.7653 C.ar    1  UNL1        0.0189
     18 C         142.5217  138.7325  155.2298 C.ar    1  UNL1        0.0016
     19 C         142.3078  139.8771  156.1754 C.ar    1  UNL1        0.0014
     20 C         142.3253  139.6398  157.6564 C.ar    1  UNL1        0.0162
     21 C         142.5568  138.2578  158.1919 C.ar    1  UNL1        0.0682
     22 C         142.7707  137.1132  157.2462 C.ar    1  UNL1        0.0943
     23 N         143.0021  135.7313  157.7816 N.ar    1  UNL1       -0.2484
     24 N         138.4747  137.5064  165.4093 N.3     1  UNL1       -0.2935
     25 H         138.8676  136.8060  166.0381 H       1  UNL1        0.1236
     26 C         138.1495  138.7071  166.2474 C.3     1  UNL1        0.1152
     27 C         138.6229  140.0666  165.8258 C.ar    1  UNL1        0.0782
     28 C         137.8884  140.8181  164.7555 C.ar    1  UNL1        0.0562
     29 C         138.3618  142.1775  164.3339 C.ar    1  UNL1        0.1752
     30 C         139.5699  142.7855  164.9828 C.ar    1  UNL1        0.1914
     31 C         140.3044  142.0341  166.0531 C.ar    1  UNL1        0.1384
     32 N         139.8310  140.6746  166.4747 N.ar    1  UNL1       -0.2434
     33 O         140.0433  144.1451  164.5612 O.3     1  UNL1       -0.4668
     34 C         139.3088  144.8965  163.4909 C.3     1  UNL1        0.2527
     35 C         138.1007  144.2885  162.8420 C.3     1  UNL1        0.2526
     36 O         137.6273  142.9290  163.2636 O.3     1  UNL1       -0.4683
@<TRIPOS>BOND
     1    13    14    1
     2    14    15   ar
     3    15    16   ar
     4    16    17   ar
     5    17    18   ar
     6    18    19   ar
     7    19    20   ar
     8    20    21   ar
     9    21     9    1
    10     9    10   am
    11    10    11    2
    12    10     1    1
    13     1     2    1
    14     1     3    1
    15     3     4    1
    16     4     5    1
    17     5    24    1
    18    24    26    1
    19    26    27    1
    20    27    28   ar
    21    28    29   ar
    22    29    30   ar
    23    30    31   ar
    24    31    32   ar
    25    30    33    1
    26    33    34    1
    27    34    35    1
    28    35    36    1
    29     5     6    1
    30     6     7    1
    31    21    22   ar
    32    22    23   ar
    33    23    14   ar
    34    22    17   ar
    35     7     1    1
    36    32    27   ar
    37    36    29    1
    38     9    12    1
    39     2     8    1
    40    24    25    1
