@<TRIPOS>MOLECULE
*****
 27 30 0 0 0
SMALL
GASTEIGER

@<TRIPOS>ATOM
      1 C         139.5102  141.2238  165.4110 C.3     1  UNL1        0.1687
      2 C         140.3890  142.4239  165.6048 C.3     1  UNL1        0.0595
      3 C         139.9169  143.7780  165.1648 C.3     1  UNL1        0.0614
      4 C         139.0703  144.8792  164.5988 C.3     1  UNL1        0.0175
      5 C         137.7830  144.2752  164.1210 C.3     1  UNL1        0.0175
      6 C         137.8341  142.8008  164.3918 C.3     1  UNL1        0.0614
      7 C         138.1594  141.3778  164.7772 C.3     1  UNL1        0.0595
      8 N         139.1530  142.4934  165.0369 N.3     1  UNL1       -0.2713
      9 O         139.9822  139.8696  165.8509 O.3     1  UNL1       -0.4775
     10 C         140.9784  139.8328  169.6923 C.ar    1  UNL1        0.0753
     11 C         142.4260  139.4491  169.6061 C.ar    1  UNL1        0.1036
     12 N         143.0589  139.2056  168.2681 N.ar    1  UNL1       -0.2390
     13 C         142.2443  139.3458  167.0165 C.ar    1  UNL1        0.1356
     14 C         140.7968  139.7294  167.1027 C.ar    1  UNL1        0.1576
     15 C         140.1638  139.9729  168.4405 C.ar    1  UNL1        0.0446
     16 N         139.4842  139.0195  171.6559 N.am    1  UNL1       -0.3253
     17 C         140.3455  140.0763  171.0302 C.2     1  UNL1        0.2444
     18 O         140.5739  141.3765  171.7425 O.2     1  UNL1       -0.2703
     19 H         139.0688  139.1794  172.5341 H       1  UNL1        0.1453
     20 H         139.3343  138.1662  171.1885 H       1  UNL1        0.1453
     21 C         139.6250  141.1393  165.4768 C.3     1  UNL1        0.0991
     22 C         139.7444  140.0258  164.4788 C.ar    1  UNL1       -0.0061
     23 C         138.7892  138.8703  164.5265 C.ar    1  UNL1       -0.0029
     24 C         138.9086  137.7569  163.5286 C.ar    1  UNL1       -0.0003
     25 C         139.9832  137.7990  162.4829 C.ar    1  UNL1       -0.0000
     26 C         140.9384  138.9546  162.4352 C.ar    1  UNL1       -0.0003
     27 C         140.8190  140.0680  163.4332 C.ar    1  UNL1       -0.0029
@<TRIPOS>BOND
     1    16    17   am
     2    17    18    2
     3    17    10    1
     4    10    11   ar
     5    11    12   ar
     6    12    13   ar
     7    13    14   ar
     8    14     9    1
     9     1     9    1
    10     1     2    1
    11     3     2    1
    12     3     4    1
    13     4     5    1
    14     6     5    1
    15     6     7    1
    16     6     8    1
    17     8    21    1
    18    21    22    1
    19    22    23   ar
    20    23    24   ar
    21    24    25   ar
    22    25    26   ar
    23    26    27   ar
    24    14    15   ar
    25    15    10   ar
    26     7     1    1
    27    27    22   ar
    28     8     3    1
    29    16    19    1
    30    16    20    1
@<TRIPOS>MOLECULE
*****
 27 30 0 0 0
SMALL
GASTEIGER

@<TRIPOS>ATOM
      1 C         139.3059  141.2911  165.7578 C.3     1  UNL1        0.1687
      2 C         140.1282  142.5383  165.8932 C.3     1  UNL1        0.0595
      3 C         139.7401  143.7775  165.1424 C.3     1  UNL1        0.0614
      4 C         139.0085  144.7323  164.2462 C.3     1  UNL1        0.0175
      5 C         137.8350  144.0076  163.6565 C.3     1  UNL1        0.0175
      6 C         137.8414  142.6050  164.1882 C.3     1  UNL1        0.0614
      7 C         138.0956  141.2831  164.8717 C.3     1  UNL1        0.0595
      8 N         139.0188  142.4628  165.1066 N.3     1  UNL1       -0.2713
      9 O         139.6939  140.0517  166.5085 O.3     1  UNL1       -0.4775
     10 C         141.7015  140.4297  169.9109 C.ar    1  UNL1        0.0753
     11 C         140.5945  140.2777  170.9116 C.ar    1  UNL1        0.1036
     12 N         139.1874  140.0503  170.4446 N.ar    1  UNL1       -0.2390
     13 C         138.8872  139.9750  168.9770 C.ar    1  UNL1        0.1356
     14 C         139.9941  140.1270  167.9763 C.ar    1  UNL1        0.1576
     15 C         141.4013  140.3544  168.4432 C.ar    1  UNL1        0.0446
     16 N         143.7646  139.6660  171.2931 N.am    1  UNL1       -0.3253
     17 C         143.1087  140.6571  170.3779 C.2     1  UNL1        0.2444
     18 O         143.8600  141.8756  169.9297 O.2     1  UNL1       -0.2703
     19 H         144.6882  139.8153  171.5996 H       1  UNL1        0.1453
     20 H         143.2715  138.8663  171.5873 H       1  UNL1        0.1453
     21 C         139.4069  141.2235  165.8573 C.3     1  UNL1        0.0991
     22 C         139.7691  139.9754  165.1083 C.ar    1  UNL1       -0.0061
     23 C         138.7820  138.8509  165.0029 C.ar    1  UNL1       -0.0029
     24 C         139.1441  137.6028  164.2539 C.ar    1  UNL1       -0.0003
     25 C         140.4934  137.4792  163.6104 C.ar    1  UNL1       -0.0000
     26 C         141.4806  138.6037  163.7158 C.ar    1  UNL1       -0.0003
     27 C         141.1183  139.8518  164.4649 C.ar    1  UNL1       -0.0029
@<TRIPOS>BOND
     1    16    17   am
     2    17    18    2
     3    17    10    1
     4    10    11   ar
     5    11    12   ar
     6    12    13   ar
     7    13    14   ar
     8    14     9    1
     9     1     9    1
    10     1     2    1
    11     3     2    1
    12     3     4    1
    13     4     5    1
    14     6     5    1
    15     6     7    1
    16     6     8    1
    17     8    21    1
    18    21    22    1
    19    22    23   ar
    20    23    24   ar
    21    24    25   ar
    22    25    26   ar
    23    26    27   ar
    24    14    15   ar
    25    15    10   ar
    26     7     1    1
    27    27    22   ar
    28     8     3    1
    29    16    19    1
    30    16    20    1
@<TRIPOS>MOLECULE
*****
 27 30 0 0 0
SMALL
GASTEIGER

@<TRIPOS>ATOM
      1 C         141.9289  141.7433  165.0486 C.3     1  UNL1        0.1687
      2 C         142.3820  140.4172  164.5137 C.3     1  UNL1        0.0595
      3 C         143.7943  140.2429  164.0392 C.3     1  UNL1        0.0614
      4 C         145.2276  140.5191  163.6940 C.3     1  UNL1        0.0175
      5 C         145.5197  141.9497  164.0377 C.3     1  UNL1        0.0175
      6 C         144.2669  142.5576  164.5952 C.3     1  UNL1        0.0614
      7 C         142.8880  142.8951  165.1089 C.3     1  UNL1        0.0595
      8 N         143.2005  141.5027  164.5961 N.3     1  UNL1       -0.2713
      9 O         140.5166  141.9177  165.5231 O.3     1  UNL1       -0.4775
     10 C         139.9464  141.9521  169.4504 C.ar    1  UNL1        0.0753
     11 C         139.3540  140.5906  169.6628 C.ar    1  UNL1        0.1036
     12 N         139.1491  139.6714  168.4952 N.ar    1  UNL1       -0.2390
     13 C         139.5366  140.1137  167.1154 C.ar    1  UNL1        0.1356
     14 C         140.1290  141.4753  166.9030 C.ar    1  UNL1        0.1576
     15 C         140.3340  142.3945  168.0705 C.ar    1  UNL1        0.0446
     16 N         140.0948  144.3573  170.4215 N.am    1  UNL1       -0.3253
     17 C         140.1513  142.8713  170.6179 C.2     1  UNL1        0.2444
     18 O         140.4128  142.3044  171.9819 O.2     1  UNL1       -0.2703
     19 H         140.2293  144.9606  171.1878 H       1  UNL1        0.1453
     20 H         139.9232  144.7294  169.5263 H       1  UNL1        0.1453
     21 C         141.7882  141.6771  165.0706 C.3     1  UNL1        0.0991
     22 C         140.8313  142.5223  164.2832 C.ar    1  UNL1       -0.0061
     23 C         140.6273  143.9627  164.6486 C.ar    1  UNL1       -0.0029
     24 C         139.6705  144.8079  163.8612 C.ar    1  UNL1       -0.0003
     25 C         138.9176  144.2126  162.7084 C.ar    1  UNL1       -0.0000
     26 C         139.1216  142.7721  162.3430 C.ar    1  UNL1       -0.0003
     27 C         140.0785  141.9270  163.1305 C.ar    1  UNL1       -0.0029
@<TRIPOS>BOND
     1    16    17   am
     2    17    18    2
     3    17    10    1
     4    10    11   ar
     5    11    12   ar
     6    12    13   ar
     7    13    14   ar
     8    14     9    1
     9     1     9    1
    10     1     2    1
    11     3     2    1
    12     3     4    1
    13     4     5    1
    14     6     5    1
    15     6     7    1
    16     6     8    1
    17     8    21    1
    18    21    22    1
    19    22    23   ar
    20    23    24   ar
    21    24    25   ar
    22    25    26   ar
    23    26    27   ar
    24    14    15   ar
    25    15    10   ar
    26     7     1    1
    27    27    22   ar
    28     8     3    1
    29    16    19    1
    30    16    20    1
@<TRIPOS>MOLECULE
*****
 27 30 0 0 0
SMALL
GASTEIGER

@<TRIPOS>ATOM
      1 C         140.7731  142.0091  167.4308 C.3     1  UNL1        0.1687
      2 C         142.1065  141.3229  167.4605 C.3     1  UNL1        0.0595
      3 C         143.0708  141.6057  168.5741 C.3     1  UNL1        0.0614
      4 C         143.6842  142.1699  169.8213 C.3     1  UNL1        0.0175
      5 C         142.7011  143.1255  170.4299 C.3     1  UNL1        0.0175
      6 C         141.4802  143.1519  169.5589 C.3     1  UNL1        0.0614
      7 C         140.4039  142.9781  168.5147 C.3     1  UNL1        0.0595
      8 N         141.7087  142.2126  168.4119 N.3     1  UNL1       -0.2713
      9 O         139.8087  141.7264  166.3171 O.3     1  UNL1       -0.4775
     10 C         139.1727  138.2713  164.4711 C.ar    1  UNL1        0.0753
     11 C         138.4445  137.5095  165.5385 C.ar    1  UNL1        0.1036
     12 N         138.1711  138.1533  166.8654 N.ar    1  UNL1       -0.2390
     13 C         138.6258  139.5589  167.1249 C.ar    1  UNL1        0.1356
     14 C         139.3539  140.3207  166.0576 C.ar    1  UNL1        0.1576
     15 C         139.6274  139.6770  164.7307 C.ar    1  UNL1        0.0446
     16 N         138.3871  137.6196  162.0820 N.am    1  UNL1       -0.3253
     17 C         139.4461  137.6275  163.1442 C.2     1  UNL1        0.2444
     18 O         140.7787  136.9916  162.8795 O.2     1  UNL1       -0.2703
     19 H         138.5665  137.1970  161.2111 H       1  UNL1        0.1453
     20 H         137.5125  138.0369  162.2557 H       1  UNL1        0.1453
     21 C         140.7444  141.9298  167.2983 C.3     1  UNL1        0.0991
     22 C         140.5786  142.9168  166.1810 C.ar    1  UNL1       -0.0061
     23 C         139.3231  143.7313  166.0799 C.ar    1  UNL1       -0.0029
     24 C         139.1573  144.7182  164.9626 C.ar    1  UNL1       -0.0003
     25 C         140.2471  144.8908  163.9464 C.ar    1  UNL1       -0.0000
     26 C         141.5027  144.0763  164.0475 C.ar    1  UNL1       -0.0003
     27 C         141.6684  143.0893  165.1648 C.ar    1  UNL1       -0.0029
@<TRIPOS>BOND
     1    16    17   am
     2    17    18    2
     3    17    10    1
     4    10    11   ar
     5    11    12   ar
     6    12    13   ar
     7    13    14   ar
     8    14     9    1
     9     1     9    1
    10     1     2    1
    11     3     2    1
    12     3     4    1
    13     4     5    1
    14     6     5    1
    15     6     7    1
    16     6     8    1
    17     8    21    1
    18    21    22    1
    19    22    23   ar
    20    23    24   ar
    21    24    25   ar
    22    25    26   ar
    23    26    27   ar
    24    14    15   ar
    25    15    10   ar
    26     7     1    1
    27    27    22   ar
    28     8     3    1
    29    16    19    1
    30    16    20    1
@<TRIPOS>MOLECULE
*****
 27 30 0 0 0
SMALL
GASTEIGER

@<TRIPOS>ATOM
      1 C         141.3572  142.3540  165.9109 C.3     1  UNL1        0.1687
      2 C         140.2504  143.2343  165.4109 C.3     1  UNL1        0.0595
      3 C         140.5453  144.3190  164.4178 C.3     1  UNL1        0.0614
      4 C         141.2734  145.2301  163.4745 C.3     1  UNL1        0.0175
      5 C         142.7217  144.8399  163.4785 C.3     1  UNL1        0.0175
      6 C         142.8888  143.6876  164.4242 C.3     1  UNL1        0.0614
      7 C         142.7590  142.5584  165.4178 C.3     1  UNL1        0.0595
      8 N         141.5437  143.3657  165.0048 N.3     1  UNL1       -0.2713
      9 O         141.0622  141.2692  166.9041 O.3     1  UNL1       -0.4775
     10 C         139.4502  138.2894  164.8373 C.ar    1  UNL1        0.0753
     11 C         138.3590  137.8550  165.7704 C.ar    1  UNL1        0.1036
     12 N         138.1690  138.5586  167.0814 N.ar    1  UNL1       -0.2390
     13 C         139.0700  139.6966  167.4593 C.ar    1  UNL1        0.1356
     14 C         140.1612  140.1311  166.5262 C.ar    1  UNL1        0.1576
     15 C         140.3512  139.4275  165.2152 C.ar    1  UNL1        0.0446
     16 N         138.5300  137.5660  162.5178 N.am    1  UNL1       -0.3253
     17 C         139.6402  137.5858  163.5263 C.2     1  UNL1        0.2444
     18 O         140.9405  136.9018  163.2237 O.2     1  UNL1       -0.2703
     19 H         138.6547  137.1042  161.6573 H       1  UNL1        0.1453
     20 H         137.6765  138.0149  162.7164 H       1  UNL1        0.1453
     21 C         141.2487  142.2810  165.9979 C.3     1  UNL1        0.0991
     22 C         141.6153  142.4651  167.4407 C.ar    1  UNL1       -0.0061
     23 C         140.6222  143.0557  168.3974 C.ar    1  UNL1       -0.0029
     24 C         140.9887  143.2398  169.8401 C.ar    1  UNL1       -0.0003
     25 C         142.3483  142.8335  170.3263 C.ar    1  UNL1       -0.0000
     26 C         143.3414  142.2429  169.3697 C.ar    1  UNL1       -0.0003
     27 C         142.9748  142.0587  167.9269 C.ar    1  UNL1       -0.0029
@<TRIPOS>BOND
     1    16    17   am
     2    17    18    2
     3    17    10    1
     4    10    11   ar
     5    11    12   ar
     6    12    13   ar
     7    13    14   ar
     8    14     9    1
     9     1     9    1
    10     1     2    1
    11     3     2    1
    12     3     4    1
    13     4     5    1
    14     6     5    1
    15     6     7    1
    16     6     8    1
    17     8    21    1
    18    21    22    1
    19    22    23   ar
    20    23    24   ar
    21    24    25   ar
    22    25    26   ar
    23    26    27   ar
    24    14    15   ar
    25    15    10   ar
    26     7     1    1
    27    27    22   ar
    28     8     3    1
    29    16    19    1
    30    16    20    1
@<TRIPOS>MOLECULE
*****
 27 30 0 0 0
SMALL
GASTEIGER

@<TRIPOS>ATOM
      1 C         140.0156  140.3099  164.6497 C.3     1  UNL1        0.1687
      2 C         138.9476  139.2589  164.7199 C.3     1  UNL1        0.0595
      3 C         138.6548  138.4060  163.5213 C.3     1  UNL1        0.0614
      4 C         138.7052  137.8176  162.1424 C.3     1  UNL1        0.0175
      5 C         139.7693  138.5386  161.3694 C.3     1  UNL1        0.0175
      6 C         140.3766  139.5727  162.2704 C.3     1  UNL1        0.0614
      7 C         140.7908  140.5078  163.3809 C.3     1  UNL1        0.0595
      8 N         139.6878  139.4907  163.6004 N.3     1  UNL1       -0.2713
      9 O         140.3084  141.1629  165.8484 O.3     1  UNL1       -0.4775
     10 C         141.0038  140.0941  169.6065 C.ar    1  UNL1        0.0753
     11 C         142.3050  139.3630  169.4571 C.ar    1  UNL1        0.1036
     12 N         142.9407  139.2319  168.1048 N.ar    1  UNL1       -0.2390
     13 C         142.2752  139.8318  166.9020 C.ar    1  UNL1        0.1356
     14 C         140.9740  140.5629  167.0513 C.ar    1  UNL1        0.1576
     15 C         140.3383  140.6941  168.4036 C.ar    1  UNL1        0.0446
     16 N         139.5930  139.0788  171.5375 N.am    1  UNL1       -0.3253
     17 C         140.3682  140.2252  170.9588 C.2     1  UNL1        0.2444
     18 O         140.5078  141.5027  171.7325 O.2     1  UNL1       -0.2703
     19 H         139.1758  139.1649  172.4251 H       1  UNL1        0.1453
     20 H         139.5014  138.2403  171.0298 H       1  UNL1        0.1453
     21 C         139.9806  140.3437  164.7990 C.3     1  UNL1        0.0991
     22 C         139.6677  141.8104  164.7703 C.ar    1  UNL1       -0.0061
     23 C         138.2408  142.2726  164.7533 C.ar    1  UNL1       -0.0029
     24 C         137.9278  143.7393  164.7246 C.ar    1  UNL1       -0.0003
     25 C         139.0418  144.7438  164.7130 C.ar    1  UNL1       -0.0000
     26 C         140.4688  144.2815  164.7300 C.ar    1  UNL1       -0.0003
     27 C         140.7816  142.8148  164.7587 C.ar    1  UNL1       -0.0029
@<TRIPOS>BOND
     1    16    17   am
     2    17    18    2
     3    17    10    1
     4    10    11   ar
     5    11    12   ar
     6    12    13   ar
     7    13    14   ar
     8    14     9    1
     9     1     9    1
    10     1     2    1
    11     3     2    1
    12     3     4    1
    13     4     5    1
    14     6     5    1
    15     6     7    1
    16     6     8    1
    17     8    21    1
    18    21    22    1
    19    22    23   ar
    20    23    24   ar
    21    24    25   ar
    22    25    26   ar
    23    26    27   ar
    24    14    15   ar
    25    15    10   ar
    26     7     1    1
    27    27    22   ar
    28     8     3    1
    29    16    19    1
    30    16    20    1
@<TRIPOS>MOLECULE
*****
 27 30 0 0 0
SMALL
GASTEIGER

@<TRIPOS>ATOM
      1 C         140.4677  141.6410  166.6173 C.3     1  UNL1        0.1687
      2 C         139.8579  140.3396  167.0467 C.3     1  UNL1        0.0595
      3 C         139.4659  140.1316  168.4796 C.3     1  UNL1        0.0614
      4 C         139.2409  140.3610  169.9448 C.3     1  UNL1        0.0175
      5 C         139.7188  141.7437  170.2762 C.3     1  UNL1        0.0175
      6 C         140.2392  142.3688  169.0159 C.3     1  UNL1        0.0614
      7 C         140.6856  142.7344  167.6208 C.3     1  UNL1        0.0595
      8 N         140.0830  141.3725  167.9055 N.3     1  UNL1       -0.2713
      9 O         140.8596  141.8491  165.1844 O.3     1  UNL1       -0.4775
     10 C         143.1931  139.3130  163.2164 C.ar    1  UNL1        0.0753
     11 C         144.5498  139.8592  163.5495 C.ar    1  UNL1        0.1036
     12 N         144.6764  141.0686  164.4277 N.ar    1  UNL1       -0.2390
     13 C         143.4464  141.7319  164.9726 C.ar    1  UNL1        0.1356
     14 C         142.0897  141.1857  164.6394 C.ar    1  UNL1        0.1576
     15 C         141.9630  139.9763  163.7613 C.ar    1  UNL1        0.0446
     16 N         141.8166  137.2751  162.3783 N.am    1  UNL1       -0.3253
     17 C         143.0664  138.1036  162.3382 C.2     1  UNL1        0.2444
     18 O         144.1897  137.7226  161.4198 O.2     1  UNL1       -0.2703
     19 H         141.7335  136.4813  161.8019 H       1  UNL1        0.1453
     20 H         141.0794  137.5251  162.9810 H       1  UNL1        0.1453
     21 C         140.4749  141.5804  166.4726 C.3     1  UNL1        0.0991
     22 C         139.6098  142.4108  165.5714 C.ar    1  UNL1       -0.0061
     23 C         138.4742  141.7742  164.8265 C.ar    1  UNL1       -0.0029
     24 C         137.6092  142.6045  163.9253 C.ar    1  UNL1       -0.0003
     25 C         137.8798  144.0716  163.7690 C.ar    1  UNL1       -0.0000
     26 C         139.0155  144.7083  164.5139 C.ar    1  UNL1       -0.0003
     27 C         139.8805  143.8779  165.4151 C.ar    1  UNL1       -0.0029
@<TRIPOS>BOND
     1    16    17   am
     2    17    18    2
     3    17    10    1
     4    10    11   ar
     5    11    12   ar
     6    12    13   ar
     7    13    14   ar
     8    14     9    1
     9     1     9    1
    10     1     2    1
    11     3     2    1
    12     3     4    1
    13     4     5    1
    14     6     5    1
    15     6     7    1
    16     6     8    1
    17     8    21    1
    18    21    22    1
    19    22    23   ar
    20    23    24   ar
    21    24    25   ar
    22    25    26   ar
    23    26    27   ar
    24    14    15   ar
    25    15    10   ar
    26     7     1    1
    27    27    22   ar
    28     8     3    1
    29    16    19    1
    30    16    20    1
@<TRIPOS>MOLECULE
*****
 27 30 0 0 0
SMALL
GASTEIGER

@<TRIPOS>ATOM
      1 C         140.2180  140.8833  165.0542 C.3     1  UNL1        0.1687
      2 C         141.3290  140.1425  164.3709 C.3     1  UNL1        0.0595
      3 C         141.0662  138.8027  163.7497 C.3     1  UNL1        0.0614
      4 C         140.3730  137.5538  163.2920 C.3     1  UNL1        0.0175
      5 C         138.9384  137.6356  163.7224 C.3     1  UNL1        0.0175
      6 C         138.7449  138.9352  164.4461 C.3     1  UNL1        0.0614
      7 C         138.8442  140.2843  165.1163 C.3     1  UNL1        0.0595
      8 N         140.0600  139.6565  164.4630 N.3     1  UNL1       -0.2713
      9 O         140.4807  142.2232  165.6754 O.3     1  UNL1       -0.4775
     10 C         141.1630  142.3694  169.5821 C.ar    1  UNL1        0.0753
     11 C         142.6577  142.4935  169.6044 C.ar    1  UNL1        0.1036
     12 N         143.4267  142.5275  168.3170 N.ar    1  UNL1       -0.2390
     13 C         142.7011  142.4374  167.0074 C.ar    1  UNL1        0.1356
     14 C         141.2064  142.3133  166.9851 C.ar    1  UNL1        0.1576
     15 C         140.4373  142.2793  168.2724 C.ar    1  UNL1        0.0446
     16 N         139.3227  143.3525  171.1303 N.am    1  UNL1       -0.3253
     17 C         140.3940  142.3355  170.8695 C.2     1  UNL1        0.2444
     18 O         140.6963  141.2844  171.8963 O.2     1  UNL1       -0.2703
     19 H         138.8179  143.3302  171.9753 H       1  UNL1        0.1453
     20 H         139.1243  144.0423  170.4565 H       1  UNL1        0.1453
     21 C         140.3228  140.9963  165.0842 C.3     1  UNL1        0.0991
     22 C         139.7919  142.2406  164.4362 C.ar    1  UNL1       -0.0061
     23 C         138.4631  142.7960  164.8554 C.ar    1  UNL1       -0.0029
     24 C         137.9321  144.0402  164.2074 C.ar    1  UNL1       -0.0003
     25 C         138.7300  144.7290  163.1402 C.ar    1  UNL1       -0.0000
     26 C         140.0589  144.1736  162.7210 C.ar    1  UNL1       -0.0003
     27 C         140.5898  142.9293  163.3691 C.ar    1  UNL1       -0.0029
@<TRIPOS>BOND
     1    16    17   am
     2    17    18    2
     3    17    10    1
     4    10    11   ar
     5    11    12   ar
     6    12    13   ar
     7    13    14   ar
     8    14     9    1
     9     1     9    1
    10     1     2    1
    11     3     2    1
    12     3     4    1
    13     4     5    1
    14     6     5    1
    15     6     7    1
    16     6     8    1
    17     8    21    1
    18    21    22    1
    19    22    23   ar
    20    23    24   ar
    21    24    25   ar
    22    25    26   ar
    23    26    27   ar
    24    14    15   ar
    25    15    10   ar
    26     7     1    1
    27    27    22   ar
    28     8     3    1
    29    16    19    1
    30    16    20    1
@<TRIPOS>MOLECULE
*****
 27 30 0 0 0
SMALL
GASTEIGER

@<TRIPOS>ATOM
      1 C         142.3056  140.8550  166.6744 C.3     1  UNL1        0.1687
      2 C         142.1914  139.5684  167.4369 C.3     1  UNL1        0.0595
      3 C         142.4776  139.5412  168.9091 C.3     1  UNL1        0.0614
      4 C         142.8416  139.9695  170.2998 C.3     1  UNL1        0.0175
      5 C         143.1387  141.4394  170.2692 C.3     1  UNL1        0.0175
      6 C         142.9583  141.9196  168.8596 C.3     1  UNL1        0.0614
      7 C         142.7060  142.1144  167.3840 C.3     1  UNL1        0.0595
      8 N         142.5497  140.7464  168.0190 N.3     1  UNL1       -0.2713
      9 O         142.0193  140.8823  165.2021 O.3     1  UNL1       -0.4775
     10 C         138.6109  142.6142  164.1380 C.ar    1  UNL1        0.0753
     11 C         137.7973  141.4184  163.7405 C.ar    1  UNL1        0.1036
     12 N         138.3911  140.0438  163.8302 N.ar    1  UNL1       -0.2390
     13 C         139.7984  139.8652  164.3174 C.ar    1  UNL1        0.1356
     14 C         140.6120  141.0610  164.7149 C.ar    1  UNL1        0.1576
     15 C         140.0183  142.4355  164.6252 C.ar    1  UNL1        0.0446
     16 N         137.4618  144.4823  162.7451 N.am    1  UNL1       -0.3253
     17 C         138.0171  143.9887  164.0483 C.2     1  UNL1        0.2444
     18 O         137.9785  144.8698  165.2617 O.2     1  UNL1       -0.2703
     19 H         137.0721  145.3845  162.6863 H       1  UNL1        0.1453
     20 H         137.4871  143.9041  161.9487 H       1  UNL1        0.1453
     21 C         142.2635  140.7736  166.5468 C.3     1  UNL1        0.0991
     22 C         143.3841  140.9652  165.5683 C.ar    1  UNL1       -0.0061
     23 C         143.8533  142.3484  165.2267 C.ar    1  UNL1       -0.0029
     24 C         144.9738  142.5399  164.2482 C.ar    1  UNL1       -0.0003
     25 C         145.6253  141.3484  163.6113 C.ar    1  UNL1       -0.0000
     26 C         145.1562  139.9651  163.9529 C.ar    1  UNL1       -0.0003
     27 C         144.0355  139.7736  164.9314 C.ar    1  UNL1       -0.0029
@<TRIPOS>BOND
     1    16    17   am
     2    17    18    2
     3    17    10    1
     4    10    11   ar
     5    11    12   ar
     6    12    13   ar
     7    13    14   ar
     8    14     9    1
     9     1     9    1
    10     1     2    1
    11     3     2    1
    12     3     4    1
    13     4     5    1
    14     6     5    1
    15     6     7    1
    16     6     8    1
    17     8    21    1
    18    21    22    1
    19    22    23   ar
    20    23    24   ar
    21    24    25   ar
    22    25    26   ar
    23    26    27   ar
    24    14    15   ar
    25    15    10   ar
    26     7     1    1
    27    27    22   ar
    28     8     3    1
    29    16    19    1
    30    16    20    1
