@<TRIPOS>MOLECULE
*****
 23 25 0 0 0
SMALL
GASTEIGER

@<TRIPOS>ATOM
      1 C         140.0400  144.4243  161.9527 C.ar    1  UNL1        0.1986
      2 C         139.0548  145.1280  162.8382 C.ar    1  UNL1        0.0454
      3 C         139.3558  144.7502  164.2584 C.ar    1  UNL1        0.0408
      4 C         140.5270  143.8130  164.2504 C.ar    1  UNL1        0.1455
      5 O         140.9498  143.6116  162.8254 O.2     1  UNL1       -0.4489
      6 C         141.1636  143.1871  165.4558 C.ar    1  UNL1        0.0346
      7 C         140.3425  142.9144  166.6812 C.ar    1  UNL1        0.0039
      8 C         140.9791  142.2885  167.8865 C.ar    1  UNL1        0.0115
      9 C         142.4367  141.9353  167.8666 C.ar    1  UNL1        0.0577
     10 CL        143.0733  141.3094  169.0721 Cl      1  UNL1       -0.0822
     11 C         143.2579  142.2080  166.6413 C.ar    1  UNL1        0.0115
     12 C         142.6212  142.8339  165.4359 C.ar    1  UNL1        0.0039
     13 N         141.0706  145.4607  159.8047 N.am    1  UNL1       -0.2779
     14 C         140.1041  144.5171  160.4569 C.2     1  UNL1        0.2842
     15 O         139.2016  143.6662  159.6134 O.2     1  UNL1       -0.2665
     16 H         141.6629  146.0191  160.3583 H       1  UNL1        0.1553
     17 C         139.0844  147.1550  155.3120 C.3     1  UNL1        0.0311
     18 C         140.1415  146.4006  156.0625 C.ar    1  UNL1       -0.0206
     19 C         141.2626  145.7390  155.3174 C.ar    1  UNL1       -0.0042
     20 C         142.3197  144.9846  156.0680 C.ar    1  UNL1        0.0010
     21 C         142.2557  144.8918  157.5637 C.ar    1  UNL1        0.0147
     22 C         141.1346  145.5534  158.3089 C.ar    1  UNL1        0.0503
     23 C         140.0775  146.3078  157.5583 C.ar    1  UNL1        0.0104
@<TRIPOS>BOND
     1    17    18    1
     2    18    19   ar
     3    19    20   ar
     4    20    21   ar
     5    21    22   ar
     6    22    13    1
     7    13    14   am
     8    14    15    2
     9    14     1    1
    10     1     2   ar
    11     2     3   ar
    12     3     4   ar
    13     4     6    1
    14     6     7   ar
    15     7     8   ar
    16     8     9   ar
    17     9    10    1
    18     9    11   ar
    19    11    12   ar
    20     4     5   ar
    21    22    23   ar
    22    23    18   ar
    23     5     1   ar
    24    12     6   ar
    25    13    16    1
@<TRIPOS>MOLECULE
*****
 23 25 0 0 0
SMALL
GASTEIGER

@<TRIPOS>ATOM
      1 C         139.9602  139.0422  164.9186 C.ar    1  UNL1        0.1986
      2 C         138.9108  138.0052  164.6476 C.ar    1  UNL1        0.0454
      3 C         138.9899  137.6340  163.1963 C.ar    1  UNL1        0.0408
      4 C         140.0881  138.4418  162.5705 C.ar    1  UNL1        0.1455
      5 O         140.6877  139.3121  163.6349 O.2     1  UNL1       -0.4489
      6 C         140.5121  138.3886  161.1327 C.ar    1  UNL1        0.0346
      7 C         141.9558  138.1783  160.7838 C.ar    1  UNL1        0.0039
      8 C         142.3798  138.1251  159.3460 C.ar    1  UNL1        0.0115
      9 C         141.3602  138.2821  158.2570 C.ar    1  UNL1        0.0577
     10 CL        141.7843  138.2289  156.8192 Cl      1  UNL1       -0.0822
     11 C         139.9165  138.4925  158.6059 C.ar    1  UNL1        0.0115
     12 C         139.4926  138.5457  160.0438 C.ar    1  UNL1        0.0039
     13 N         141.4494  140.5564  166.4152 N.am    1  UNL1       -0.2779
     14 C         140.2339  139.6948  166.2412 C.2     1  UNL1        0.2842
     15 O         139.2920  139.4859  167.3898 O.2     1  UNL1       -0.2665
     16 H         142.0675  140.6935  165.6613 H       1  UNL1        0.1553
     17 C         140.3564  144.2145  169.9399 C.3     1  UNL1        0.0311
     18 C         141.1766  143.0381  169.5001 C.ar    1  UNL1       -0.0206
     19 C         142.2703  142.5143  170.3829 C.ar    1  UNL1       -0.0042
     20 C         143.0904  141.3378  169.9431 C.ar    1  UNL1        0.0010
     21 C         142.8168  140.6852  168.6206 C.ar    1  UNL1        0.0147
     22 C         141.7230  141.2090  167.7378 C.ar    1  UNL1        0.0503
     23 C         140.9029  142.3854  168.1776 C.ar    1  UNL1        0.0104
@<TRIPOS>BOND
     1    17    18    1
     2    18    19   ar
     3    19    20   ar
     4    20    21   ar
     5    21    22   ar
     6    22    13    1
     7    13    14   am
     8    14    15    2
     9    14     1    1
    10     1     2   ar
    11     2     3   ar
    12     3     4   ar
    13     4     6    1
    14     6     7   ar
    15     7     8   ar
    16     8     9   ar
    17     9    10    1
    18     9    11   ar
    19    11    12   ar
    20     4     5   ar
    21    22    23   ar
    22    23    18   ar
    23     5     1   ar
    24    12     6   ar
    25    13    16    1
@<TRIPOS>MOLECULE
*****
 23 25 0 0 0
SMALL
GASTEIGER

@<TRIPOS>ATOM
      1 C         144.9365  141.8677  158.2734 C.ar    1  UNL1        0.1986
      2 C         144.3465  140.9587  157.2363 C.ar    1  UNL1        0.0454
      3 C         145.2052  141.0372  156.0088 C.ar    1  UNL1        0.0408
      4 C         146.3258  141.9947  156.2874 C.ar    1  UNL1        0.1455
      5 O         146.1597  142.5080  157.6870 O.2     1  UNL1       -0.4489
      6 C         147.4202  142.3725  155.3339 C.ar    1  UNL1        0.0346
      7 C         147.1799  143.4296  154.2970 C.ar    1  UNL1        0.0039
      8 C         148.2744  143.8074  153.3435 C.ar    1  UNL1        0.0115
      9 C         149.6092  143.1282  153.4267 C.ar    1  UNL1        0.0577
     10 CL        150.7037  143.5061  152.4731 Cl      1  UNL1       -0.0822
     11 C         149.8496  142.0711  154.4635 C.ar    1  UNL1        0.0115
     12 C         148.7550  141.6933  155.4170 C.ar    1  UNL1        0.0039
     13 N         145.2317  142.8110  160.6762 N.am    1  UNL1       -0.2779
     14 C         144.3977  142.0963  159.6546 C.2     1  UNL1        0.2842
     15 O         143.0250  141.6102  160.0141 O.2     1  UNL1       -0.2665
     16 H         146.1326  143.1301  160.4402 H       1  UNL1        0.1553
     17 C         142.0571  145.3627  163.9028 C.3     1  UNL1        0.0311
     18 C         143.1056  144.3155  163.6706 C.ar    1  UNL1       -0.0206
     19 C         143.6154  143.4968  164.8195 C.ar    1  UNL1       -0.0042
     20 C         144.6639  142.4496  164.5873 C.ar    1  UNL1        0.0010
     21 C         145.2027  142.2210  163.2062 C.ar    1  UNL1        0.0147
     22 C         144.6929  143.0396  162.0573 C.ar    1  UNL1        0.0503
     23 C         143.6444  144.0868  162.2895 C.ar    1  UNL1        0.0104
@<TRIPOS>BOND
     1    17    18    1
     2    18    19   ar
     3    19    20   ar
     4    20    21   ar
     5    21    22   ar
     6    22    13    1
     7    13    14   am
     8    14    15    2
     9    14     1    1
    10     1     2   ar
    11     2     3   ar
    12     3     4   ar
    13     4     6    1
    14     6     7   ar
    15     7     8   ar
    16     8     9   ar
    17     9    10    1
    18     9    11   ar
    19    11    12   ar
    20     4     5   ar
    21    22    23   ar
    22    23    18   ar
    23     5     1   ar
    24    12     6   ar
    25    13    16    1
@<TRIPOS>MOLECULE
*****
 23 25 0 0 0
SMALL
GASTEIGER

@<TRIPOS>ATOM
      1 C         142.9661  143.2333  164.1376 C.ar    1  UNL1        0.1986
      2 C         144.0921  143.1912  165.1277 C.ar    1  UNL1        0.0454
      3 C         143.5556  142.6430  166.4168 C.ar    1  UNL1        0.0408
      4 C         142.0979  142.3464  166.2233 C.ar    1  UNL1        0.1455
      5 O         141.7336  142.7112  164.8147 O.2     1  UNL1       -0.4489
      6 C         141.1679  141.7837  167.2569 C.ar    1  UNL1        0.0346
      7 C         140.4238  140.5104  166.9828 C.ar    1  UNL1        0.0039
      8 C         139.4938  139.9478  168.0164 C.ar    1  UNL1        0.0115
      9 C         139.3078  140.6584  169.3243 C.ar    1  UNL1        0.0577
     10 CL        138.3778  140.0957  170.3579 Cl      1  UNL1       -0.0822
     11 C         140.0519  141.9317  169.5985 C.ar    1  UNL1        0.0115
     12 C         140.9819  142.4943  168.5648 C.ar    1  UNL1        0.0039
     13 N         141.9901  143.3420  161.7323 N.am    1  UNL1       -0.2779
     14 C         143.0567  143.7134  162.7194 C.2     1  UNL1        0.2842
     15 O         144.2139  144.5648  162.2883 O.2     1  UNL1       -0.2665
     16 H         141.2305  142.7831  162.0153 H       1  UNL1        0.1553
     17 C         143.8353  142.7953  156.9057 C.3     1  UNL1        0.0311
     18 C         143.0033  143.5486  157.9007 C.ar    1  UNL1       -0.0206
     19 C         142.2619  144.7820  157.4776 C.ar    1  UNL1       -0.0042
     20 C         141.4299  145.5354  158.4727 C.ar    1  UNL1        0.0010
     21 C         141.3392  145.0554  159.8909 C.ar    1  UNL1        0.0147
     22 C         142.0807  143.8220  160.3140 C.ar    1  UNL1        0.0503
     23 C         142.9127  143.0687  159.3189 C.ar    1  UNL1        0.0104
@<TRIPOS>BOND
     1    17    18    1
     2    18    19   ar
     3    19    20   ar
     4    20    21   ar
     5    21    22   ar
     6    22    13    1
     7    13    14   am
     8    14    15    2
     9    14     1    1
    10     1     2   ar
    11     2     3   ar
    12     3     4   ar
    13     4     6    1
    14     6     7   ar
    15     7     8   ar
    16     8     9   ar
    17     9    10    1
    18     9    11   ar
    19    11    12   ar
    20     4     5   ar
    21    22    23   ar
    22    23    18   ar
    23     5     1   ar
    24    12     6   ar
    25    13    16    1
@<TRIPOS>MOLECULE
*****
 23 25 0 0 0
SMALL
GASTEIGER

@<TRIPOS>ATOM
      1 C         140.7105  144.2381  159.3434 C.ar    1  UNL1        0.1986
      2 C         139.7816  143.3374  158.5846 C.ar    1  UNL1        0.0454
      3 C         139.3984  144.0330  157.3120 C.ar    1  UNL1        0.0408
      4 C         140.0906  145.3636  157.2844 C.ar    1  UNL1        0.1455
      5 O         140.9015  145.4903  158.5400 O.2     1  UNL1       -0.4489
      6 C         139.9895  146.3875  156.1931 C.ar    1  UNL1        0.0346
      7 C         140.7760  146.2149  154.9274 C.ar    1  UNL1        0.0039
      8 C         140.6749  147.2388  153.8361 C.ar    1  UNL1        0.0115
      9 C         139.7874  148.4355  154.0102 C.ar    1  UNL1        0.0577
     10 CL        139.6864  149.4595  152.9187 Cl      1  UNL1       -0.0822
     11 C         139.0009  148.6082  155.2758 C.ar    1  UNL1        0.0115
     12 C         139.1020  147.5842  156.3672 C.ar    1  UNL1        0.0039
     13 N         142.8090  144.1554  160.8731 N.am    1  UNL1       -0.2779
     14 C         141.3383  143.9390  160.6726 C.2     1  UNL1        0.2842
     15 O         140.4953  143.4236  161.8012 O.2     1  UNL1       -0.2665
     16 H         143.3622  144.4937  160.1323 H       1  UNL1        0.1553
     17 C         145.4407  140.9300  163.9829 C.3     1  UNL1        0.0311
     18 C         144.7526  142.2436  163.7571 C.ar    1  UNL1       -0.0206
     19 C         144.6923  143.2581  164.8603 C.ar    1  UNL1       -0.0042
     20 C         144.0042  144.5717  164.6345 C.ar    1  UNL1        0.0010
     21 C         143.3764  144.8708  163.3054 C.ar    1  UNL1        0.0147
     22 C         143.4368  143.8563  162.2022 C.ar    1  UNL1        0.0503
     23 C         144.1249  142.5427  162.4280 C.ar    1  UNL1        0.0104
@<TRIPOS>BOND
     1    17    18    1
     2    18    19   ar
     3    19    20   ar
     4    20    21   ar
     5    21    22   ar
     6    22    13    1
     7    13    14   am
     8    14    15    2
     9    14     1    1
    10     1     2   ar
    11     2     3   ar
    12     3     4   ar
    13     4     6    1
    14     6     7   ar
    15     7     8   ar
    16     8     9   ar
    17     9    10    1
    18     9    11   ar
    19    11    12   ar
    20     4     5   ar
    21    22    23   ar
    22    23    18   ar
    23     5     1   ar
    24    12     6   ar
    25    13    16    1
@<TRIPOS>MOLECULE
*****
 23 25 0 0 0
SMALL
GASTEIGER

@<TRIPOS>ATOM
      1 C         140.7299  138.2886  161.4197 C.ar    1  UNL1        0.1986
      2 C         139.2638  137.9795  161.3491 C.ar    1  UNL1        0.0454
      3 C         138.6683  138.2461  162.6999 C.ar    1  UNL1        0.0408
      4 C         139.7665  138.7199  163.6052 C.ar    1  UNL1        0.1455
      5 O         141.0406  138.7462  162.8139 O.2     1  UNL1       -0.4489
      6 C         139.6169  139.1005  165.0482 C.ar    1  UNL1        0.0346
      7 C         138.3798  138.7117  165.8022 C.ar    1  UNL1        0.0039
      8 C         138.2302  139.0923  167.2453 C.ar    1  UNL1        0.0115
      9 C         139.3176  139.8619  167.9346 C.ar    1  UNL1        0.0577
     10 CL        139.1680  140.2426  169.3778 Cl      1  UNL1       -0.0822
     11 C         140.5548  140.2509  167.1807 C.ar    1  UNL1        0.0115
     12 C         140.7043  139.8702  165.7375 C.ar    1  UNL1        0.0039
     13 N         141.2698  138.4036  158.8809 N.am    1  UNL1       -0.2779
     14 C         141.7127  138.1623  160.2935 C.2     1  UNL1        0.2842
     15 O         143.1385  137.7947  160.5801 O.2     1  UNL1       -0.2665
     16 H         140.3341  138.6449  158.6928 H       1  UNL1        0.1553
     17 C         143.8857  135.4479  155.5013 C.3     1  UNL1        0.0311
     18 C         143.5606  136.7995  156.0650 C.ar    1  UNL1       -0.0206
     19 C         144.2182  138.0246  155.5026 C.ar    1  UNL1       -0.0042
     20 C         143.8931  139.3761  156.0662 C.ar    1  UNL1        0.0010
     21 C         142.9104  139.5025  157.1923 C.ar    1  UNL1        0.0147
     22 C         142.2527  138.2773  157.7547 C.ar    1  UNL1        0.0503
     23 C         142.5778  136.9258  157.1911 C.ar    1  UNL1        0.0104
@<TRIPOS>BOND
     1    17    18    1
     2    18    19   ar
     3    19    20   ar
     4    20    21   ar
     5    21    22   ar
     6    22    13    1
     7    13    14   am
     8    14    15    2
     9    14     1    1
    10     1     2   ar
    11     2     3   ar
    12     3     4   ar
    13     4     6    1
    14     6     7   ar
    15     7     8   ar
    16     8     9   ar
    17     9    10    1
    18     9    11   ar
    19    11    12   ar
    20     4     5   ar
    21    22    23   ar
    22    23    18   ar
    23     5     1   ar
    24    12     6   ar
    25    13    16    1
@<TRIPOS>MOLECULE
*****
 23 25 0 0 0
SMALL
GASTEIGER

@<TRIPOS>ATOM
      1 C         141.8575  138.7571  164.4439 C.ar    1  UNL1        0.1986
      2 C         142.9865  138.3172  165.3282 C.ar    1  UNL1        0.0454
      3 C         142.8081  138.9701  166.6669 C.ar    1  UNL1        0.0408
      4 C         141.5689  139.8134  166.6099 C.ar    1  UNL1        0.1455
      5 O         140.9814  139.6817  165.2360 O.2     1  UNL1       -0.4489
      6 C         141.0146  140.6427  167.7300 C.ar    1  UNL1        0.0346
      7 C         139.9906  140.0605  168.6587 C.ar    1  UNL1        0.0039
      8 C         139.4363  140.8899  169.7789 C.ar    1  UNL1        0.0115
      9 C         139.9059  142.3015  169.9704 C.ar    1  UNL1        0.0577
     10 CL        139.3515  143.1309  171.0906 Cl      1  UNL1       -0.0822
     11 C         140.9299  142.8839  169.0417 C.ar    1  UNL1        0.0115
     12 C         141.4842  142.0544  167.9215 C.ar    1  UNL1        0.0039
     13 N         142.1143  139.2289  161.9020 N.am    1  UNL1       -0.2779
     14 C         141.6424  138.3446  163.0178 C.2     1  UNL1        0.2842
     15 O         140.9554  137.0477  162.7077 O.2     1  UNL1       -0.2665
     16 H         142.5652  140.0801  162.1055 H       1  UNL1        0.1553
     17 C         139.2689  139.3718  157.5565 C.3     1  UNL1        0.0311
     18 C         140.4765  138.8879  158.3032 C.ar    1  UNL1       -0.0206
     19 C         141.4690  137.9916  157.6238 C.ar    1  UNL1       -0.0042
     20 C         142.6766  137.5077  158.3705 C.ar    1  UNL1        0.0010
     21 C         142.8917  137.9201  159.7965 C.ar    1  UNL1        0.0147
     22 C         141.8992  138.8164  160.4759 C.ar    1  UNL1        0.0503
     23 C         140.6916  139.3003  159.7292 C.ar    1  UNL1        0.0104
@<TRIPOS>BOND
     1    17    18    1
     2    18    19   ar
     3    19    20   ar
     4    20    21   ar
     5    21    22   ar
     6    22    13    1
     7    13    14   am
     8    14    15    2
     9    14     1    1
    10     1     2   ar
    11     2     3   ar
    12     3     4   ar
    13     4     6    1
    14     6     7   ar
    15     7     8   ar
    16     8     9   ar
    17     9    10    1
    18     9    11   ar
    19    11    12   ar
    20     4     5   ar
    21    22    23   ar
    22    23    18   ar
    23     5     1   ar
    24    12     6   ar
    25    13    16    1
@<TRIPOS>MOLECULE
*****
 23 25 0 0 0
SMALL
GASTEIGER

@<TRIPOS>ATOM
      1 C         139.4992  138.7919  158.9054 C.ar    1  UNL1        0.1986
      2 C         138.5006  139.9108  158.8802 C.ar    1  UNL1        0.0454
      3 C         138.0601  140.1709  160.2904 C.ar    1  UNL1        0.0408
      4 C         138.7867  139.2126  161.1871 C.ar    1  UNL1        0.1455
      5 O         139.6760  138.3603  160.3311 O.2     1  UNL1       -0.4489
      6 C         138.6481  139.1224  162.6778 C.ar    1  UNL1        0.0346
      7 C         138.9276  137.8267  163.3801 C.ar    1  UNL1        0.0039
      8 C         138.7891  137.7366  164.8709 C.ar    1  UNL1        0.0115
      9 C         138.3710  138.9420  165.6596 C.ar    1  UNL1        0.0577
     10 CL        138.2324  138.8519  167.1505 Cl      1  UNL1       -0.0822
     11 C         138.0915  140.2378  164.9574 C.ar    1  UNL1        0.0115
     12 C         138.2301  140.3279  163.4665 C.ar    1  UNL1        0.0039
     13 N         139.4674  137.2663  156.8026 N.am    1  UNL1       -0.2779
     14 C         140.1983  138.2071  157.7140 C.2     1  UNL1        0.2842
     15 O         141.6283  138.5632  157.4341 O.2     1  UNL1       -0.2665
     16 H         138.5289  137.0326  156.9864 H       1  UNL1        0.1553
     17 C         142.9846  134.0074  154.8002 C.3     1  UNL1        0.0311
     18 C         141.9251  135.0521  154.6101 C.ar    1  UNL1       -0.0206
     19 C         141.5647  135.5121  153.2286 C.ar    1  UNL1       -0.0042
     20 C         140.5053  136.5568  153.0384 C.ar    1  UNL1        0.0010
     21 C         139.8062  137.1415  154.2297 C.ar    1  UNL1        0.0147
     22 C         140.1666  136.6816  155.6112 C.ar    1  UNL1        0.0503
     23 C         141.2260  135.6369  155.8014 C.ar    1  UNL1        0.0104
@<TRIPOS>BOND
     1    17    18    1
     2    18    19   ar
     3    19    20   ar
     4    20    21   ar
     5    21    22   ar
     6    22    13    1
     7    13    14   am
     8    14    15    2
     9    14     1    1
    10     1     2   ar
    11     2     3   ar
    12     3     4   ar
    13     4     6    1
    14     6     7   ar
    15     7     8   ar
    16     8     9   ar
    17     9    10    1
    18     9    11   ar
    19    11    12   ar
    20     4     5   ar
    21    22    23   ar
    22    23    18   ar
    23     5     1   ar
    24    12     6   ar
    25    13    16    1
@<TRIPOS>MOLECULE
*****
 23 25 0 0 0
SMALL
GASTEIGER

@<TRIPOS>ATOM
      1 C         139.7171  144.2683  163.4825 C.ar    1  UNL1        0.1986
      2 C         138.8779  144.8759  164.5672 C.ar    1  UNL1        0.0454
      3 C         139.1601  144.1358  165.8411 C.ar    1  UNL1        0.0408
      4 C         140.1737  143.0708  165.5435 C.ar    1  UNL1        0.1455
      5 O         140.5179  143.1527  164.0858 O.2     1  UNL1       -0.4489
      6 C         140.7431  142.0952  166.5303 C.ar    1  UNL1        0.0346
      7 C         142.1750  142.2133  166.9610 C.ar    1  UNL1        0.0039
      8 C         142.7444  141.2377  167.9478 C.ar    1  UNL1        0.0115
      9 C         141.8818  140.1438  168.5041 C.ar    1  UNL1        0.0577
     10 CL        142.4512  139.1682  169.4910 Cl      1  UNL1       -0.0822
     11 C         140.4498  140.0256  168.0735 C.ar    1  UNL1        0.0115
     12 C         139.8805  141.0013  167.0866 C.ar    1  UNL1        0.0039
     13 N         140.4173  143.8365  161.0181 N.am    1  UNL1       -0.2779
     14 C         139.7496  144.7006  162.0464 C.2     1  UNL1        0.2842
     15 O         139.1145  145.9969  161.6388 O.2     1  UNL1       -0.2665
     16 H         140.8341  142.9857  161.2856 H       1  UNL1        0.1553
     17 C         138.6456  143.4174  156.1513 C.3     1  UNL1        0.0311
     18 C         139.5640  144.0591  157.1487 C.ar    1  UNL1       -0.0206
     19 C         140.5149  145.1331  156.7100 C.ar    1  UNL1       -0.0042
     20 C         141.4333  145.7748  157.7074 C.ar    1  UNL1        0.0010
     21 C         141.4007  145.3426  159.1434 C.ar    1  UNL1        0.0147
     22 C         140.4498  144.2687  159.5820 C.ar    1  UNL1        0.0503
     23 C         139.5315  143.6270  158.5846 C.ar    1  UNL1        0.0104
@<TRIPOS>BOND
     1    17    18    1
     2    18    19   ar
     3    19    20   ar
     4    20    21   ar
     5    21    22   ar
     6    22    13    1
     7    13    14   am
     8    14    15    2
     9    14     1    1
    10     1     2   ar
    11     2     3   ar
    12     3     4   ar
    13     4     6    1
    14     6     7   ar
    15     7     8   ar
    16     8     9   ar
    17     9    10    1
    18     9    11   ar
    19    11    12   ar
    20     4     5   ar
    21    22    23   ar
    22    23    18   ar
    23     5     1   ar
    24    12     6   ar
    25    13    16    1
