@<TRIPOS>MOLECULE
*****
 35 38 0 0 0
SMALL
GASTEIGER

@<TRIPOS>ATOM
      1 N         140.7258  144.2742  160.5550 N.am    1  UNL1       -0.2674
      2 C         141.0661  144.6832  159.1525 C.2     1  UNL1        0.2493
      3 O         142.1724  145.6123  158.7489 O.2     1  UNL1       -0.2699
      4 C         140.1059  144.0000  158.2245 C.ar    1  UNL1        0.0516
      5 C         139.9612  144.0274  156.7318 C.ar    1  UNL1        0.0043
      6 C         138.8827  143.2236  156.0680 C.ar    1  UNL1        0.0001
      7 C         137.9489  142.3923  156.8969 C.ar    1  UNL1       -0.0003
      8 C         138.0937  142.3649  158.3896 C.ar    1  UNL1       -0.0021
      9 C         139.1721  143.1687  159.0534 C.ar    1  UNL1        0.0089
     10 C         139.5553  143.3382  160.4937 C.3     1  UNL1        0.1751
     11 C         138.8855  142.6861  161.6668 C.2     1  UNL1        0.2451
     12 O         137.4990  143.0985  162.0634 O.2     1  UNL1       -0.2729
     13 N         139.6023  141.6216  162.4434 N.am    1  UNL1       -0.2988
     14 H         140.5124  141.3509  162.1831 H       1  UNL1        0.1498
     15 C         138.9325  140.9695  163.6165 C.3     1  UNL1        0.1164
     16 C         139.4224  141.2436  165.0075 C.ar    1  UNL1       -0.0024
     17 C         139.5255  140.1240  166.0004 C.ar    1  UNL1        0.0005
     18 C         140.0154  140.3981  167.3915 C.ar    1  UNL1        0.0369
     19 C         140.4022  141.7916  167.7896 C.ar    1  UNL1        0.1468
     20 C         140.2991  142.9111  166.7965 C.ar    1  UNL1        0.0369
     21 C         139.8092  142.6371  165.4055 C.ar    1  UNL1        0.0005
     22 O         140.8921  142.0657  169.1805 O.3     1  UNL1       -0.4045
     23 C         140.0531  142.8739  170.1254 C.3     1  UNL1        0.5753
     24 F         139.2142  143.6822  171.0704 F       1  UNL1       -0.1328
     25 F         139.1215  141.7104  170.2934 F       1  UNL1       -0.1328
     26 F         140.9848  144.0374  169.9574 F       1  UNL1       -0.1328
     27 C         140.7641  145.6861  162.7356 C.3     1  UNL1        0.0220
     28 C         141.4321  144.7225  161.8001 C.3     1  UNL1        0.0823
     29 C         142.8063  144.2071  162.1097 C.3     1  UNL1        0.0656
     30 C         143.0026  143.2114  163.2143 C.ar    1  UNL1        0.0607
     31 C         143.4971  143.6666  164.5552 C.ar    1  UNL1        0.0148
     32 C         143.6935  142.6709  165.6598 C.ar    1  UNL1        0.0028
     33 C         143.3953  141.2200  165.4234 C.ar    1  UNL1        0.0207
     34 C         142.9008  140.7647  164.0824 C.ar    1  UNL1        0.0984
     35 N         142.7045  141.7604  162.9778 N.ar    1  UNL1       -0.2481
@<TRIPOS>BOND
     1    27    28    1
     2    28    29    1
     3    29    30    1
     4    30    31   ar
     5    31    32   ar
     6    32    33   ar
     7    33    34   ar
     8    34    35   ar
     9    28     1    1
    10     1     2   am
    11     2     3    2
    12     2     4    1
    13     4     5   ar
    14     5     6   ar
    15     6     7   ar
    16     7     8   ar
    17     8     9   ar
    18     9    10    1
    19    10    11    1
    20    11    12    2
    21    11    13   am
    22    13    15    1
    23    15    16    1
    24    16    17   ar
    25    17    18   ar
    26    18    19   ar
    27    19    22    1
    28    22    23    1
    29    23    24    1
    30    23    25    1
    31    23    26    1
    32    19    20   ar
    33    20    21   ar
    34    35    30   ar
    35    10     1    1
    36    21    16   ar
    37     9     4   ar
    38    13    14    1
@<TRIPOS>MOLECULE
*****
 35 38 0 0 0
SMALL
GASTEIGER

@<TRIPOS>ATOM
      1 N         141.0549  144.7430  161.5989 N.am    1  UNL1       -0.2674
      2 C         140.3420  145.5922  160.5886 C.2     1  UNL1        0.2493
      3 O         139.2749  146.6044  160.8834 O.2     1  UNL1       -0.2699
      4 C         140.8836  145.2517  159.2319 C.ar    1  UNL1        0.0516
      5 C         140.5582  145.7697  157.8623 C.ar    1  UNL1        0.0043
      6 C         141.2803  145.2279  156.6645 C.ar    1  UNL1        0.0001
      7 C         142.3280  144.1682  156.8362 C.ar    1  UNL1       -0.0003
      8 C         142.6534  143.6502  158.2057 C.ar    1  UNL1       -0.0021
      9 C         141.9312  144.1920  159.4036 C.ar    1  UNL1        0.0089
     10 C         142.0371  143.8776  160.8665 C.3     1  UNL1        0.1751
     11 C         142.9626  142.8740  161.4878 C.2     1  UNL1        0.2451
     12 O         144.4058  143.2192  161.7064 O.2     1  UNL1       -0.2729
     13 N         142.4449  141.5249  161.8906 N.am    1  UNL1       -0.2988
     14 H         141.4977  141.2982  161.7472 H       1  UNL1        0.1498
     15 C         143.3705  140.5213  162.5120 C.3     1  UNL1        0.1164
     16 C         143.2470  140.1889  163.9694 C.ar    1  UNL1       -0.0024
     17 C         143.2371  138.7562  164.4136 C.ar    1  UNL1        0.0005
     18 C         143.1135  138.4237  165.8712 C.ar    1  UNL1        0.0369
     19 C         142.9999  139.5239  166.8844 C.ar    1  UNL1        0.1468
     20 C         143.0098  140.9566  166.4401 C.ar    1  UNL1        0.0369
     21 C         143.1333  141.2891  164.9826 C.ar    1  UNL1        0.0005
     22 O         142.8764  139.1915  168.3418 O.3     1  UNL1       -0.4045
     23 C         142.1226  140.1084  169.2589 C.3     1  UNL1        0.5753
     24 F         141.3687  141.0254  170.1759 F       1  UNL1       -0.1328
     25 F         140.8257  139.5803  168.7209 F       1  UNL1       -0.1328
     26 F         143.4194  140.6365  169.7969 F       1  UNL1       -0.1328
     27 C         141.8533  145.3586  163.9933 C.3     1  UNL1        0.0220
     28 C         140.8258  144.7567  163.0812 C.3     1  UNL1        0.0823
     29 C         139.5693  144.1686  163.6514 C.3     1  UNL1        0.0656
     30 C         139.5503  142.7403  164.1093 C.ar    1  UNL1        0.0607
     31 C         139.4524  142.4228  165.5720 C.ar    1  UNL1        0.0148
     32 C         139.4334  140.9945  166.0298 C.ar    1  UNL1        0.0028
     33 C         139.5124  139.8837  165.0250 C.ar    1  UNL1        0.0207
     34 C         139.6103  140.2011  163.5622 C.ar    1  UNL1        0.0984
     35 N         139.6293  141.6294  163.1043 N.ar    1  UNL1       -0.2481
@<TRIPOS>BOND
     1    27    28    1
     2    28    29    1
     3    29    30    1
     4    30    31   ar
     5    31    32   ar
     6    32    33   ar
     7    33    34   ar
     8    34    35   ar
     9    28     1    1
    10     1     2   am
    11     2     3    2
    12     2     4    1
    13     4     5   ar
    14     5     6   ar
    15     6     7   ar
    16     7     8   ar
    17     8     9   ar
    18     9    10    1
    19    10    11    1
    20    11    12    2
    21    11    13   am
    22    13    15    1
    23    15    16    1
    24    16    17   ar
    25    17    18   ar
    26    18    19   ar
    27    19    22    1
    28    22    23    1
    29    23    24    1
    30    23    25    1
    31    23    26    1
    32    19    20   ar
    33    20    21   ar
    34    35    30   ar
    35    10     1    1
    36    21    16   ar
    37     9     4   ar
    38    13    14    1
@<TRIPOS>MOLECULE
*****
 35 38 0 0 0
SMALL
GASTEIGER

@<TRIPOS>ATOM
      1 N         139.8359  143.7263  162.2269 N.am    1  UNL1       -0.2674
      2 C         139.6282  144.2349  160.8311 C.2     1  UNL1        0.2493
      3 O         139.7235  145.6656  160.3908 O.2     1  UNL1       -0.2699
      4 C         139.3087  143.0616  159.9529 C.ar    1  UNL1        0.0516
      5 C         139.0097  142.9572  158.4867 C.ar    1  UNL1        0.0043
      6 C         138.7209  141.6191  157.8736 C.ar    1  UNL1        0.0001
      7 C         138.7311  140.3853  158.7267 C.ar    1  UNL1       -0.0003
      8 C         139.0300  140.4897  160.1928 C.ar    1  UNL1       -0.0021
      9 C         139.3188  141.8278  160.8060 C.ar    1  UNL1        0.0089
     10 C         139.6446  142.2386  162.2113 C.3     1  UNL1        0.1751
     11 C         139.7591  141.3226  163.3936 C.2     1  UNL1        0.2451
     12 O         140.9946  140.4934  163.5831 O.2     1  UNL1       -0.2729
     13 N         138.6380  141.2357  164.3865 N.am    1  UNL1       -0.2988
     14 H         137.8271  141.7800  164.2622 H       1  UNL1        0.1498
     15 C         138.7525  140.3197  165.5687 C.3     1  UNL1        0.1164
     16 C         139.5377  140.7452  166.7739 C.ar    1  UNL1       -0.0024
     17 C         139.5045  139.9142  168.0222 C.ar    1  UNL1        0.0005
     18 C         140.2897  140.3398  169.2275 C.ar    1  UNL1        0.0369
     19 C         141.1080  141.5962  169.1844 C.ar    1  UNL1        0.1468
     20 C         141.1410  142.4271  167.9359 C.ar    1  UNL1        0.0369
     21 C         140.3559  142.0016  166.7307 C.ar    1  UNL1        0.0005
     22 O         141.8931  142.0217  170.3895 O.3     1  UNL1       -0.4045
     23 C         143.3421  142.3841  170.2509 C.3     1  UNL1        0.5753
     24 F         144.7910  142.7465  170.1124 F       1  UNL1       -0.1328
     25 F         143.6386  141.0042  169.7429 F       1  UNL1       -0.1328
     26 F         143.0456  143.7640  170.7590 F       1  UNL1       -0.1328
     27 C         139.1287  144.8419  164.4641 C.3     1  UNL1        0.0220
     28 C         140.1752  144.5591  163.4274 C.3     1  UNL1        0.0823
     29 C         141.5611  145.1091  163.5912 C.3     1  UNL1        0.0656
     30 C         142.7482  144.2009  163.4655 C.ar    1  UNL1        0.0607
     31 C         143.1426  143.3189  164.6129 C.ar    1  UNL1        0.0148
     32 C         144.3297  142.4107  164.4873 C.ar    1  UNL1        0.0028
     33 C         145.1224  142.3844  163.2142 C.ar    1  UNL1        0.0207
     34 C         144.7281  143.2663  162.0667 C.ar    1  UNL1        0.0984
     35 N         143.5410  144.1746  162.1923 N.ar    1  UNL1       -0.2481
@<TRIPOS>BOND
     1    27    28    1
     2    28    29    1
     3    29    30    1
     4    30    31   ar
     5    31    32   ar
     6    32    33   ar
     7    33    34   ar
     8    34    35   ar
     9    28     1    1
    10     1     2   am
    11     2     3    2
    12     2     4    1
    13     4     5   ar
    14     5     6   ar
    15     6     7   ar
    16     7     8   ar
    17     8     9   ar
    18     9    10    1
    19    10    11    1
    20    11    12    2
    21    11    13   am
    22    13    15    1
    23    15    16    1
    24    16    17   ar
    25    17    18   ar
    26    18    19   ar
    27    19    22    1
    28    22    23    1
    29    23    24    1
    30    23    25    1
    31    23    26    1
    32    19    20   ar
    33    20    21   ar
    34    35    30   ar
    35    10     1    1
    36    21    16   ar
    37     9     4   ar
    38    13    14    1
@<TRIPOS>MOLECULE
*****
 35 38 0 0 0
SMALL
GASTEIGER

@<TRIPOS>ATOM
      1 N         140.2061  140.0627  166.7339 N.am    1  UNL1       -0.2674
      2 C         139.8144  140.0986  168.1813 C.2     1  UNL1        0.2493
      3 O         138.6098  139.4398  168.7854 O.2     1  UNL1       -0.2699
      4 C         140.8388  140.9091  168.9188 C.ar    1  UNL1        0.0516
      5 C         140.9707  141.2837  170.3653 C.ar    1  UNL1        0.0043
      6 C         142.1275  142.1233  170.8200 C.ar    1  UNL1        0.0001
      7 C         143.1524  142.5883  169.8283 C.ar    1  UNL1       -0.0003
      8 C         143.0204  142.2137  168.3818 C.ar    1  UNL1       -0.0021
      9 C         141.8636  141.3741  167.9271 C.ar    1  UNL1        0.0089
     10 C         141.4726  140.8510  166.5768 C.3     1  UNL1        0.1751
     11 C         142.2174  141.0766  165.2944 C.2     1  UNL1        0.2451
     12 O         143.6420  140.6256  165.1651 O.2     1  UNL1       -0.2729
     13 N         141.5373  141.7533  164.1412 N.am    1  UNL1       -0.2988
     14 H         140.6022  142.0493  164.2260 H       1  UNL1        0.1498
     15 C         142.2821  141.9789  162.8588 C.3     1  UNL1        0.1164
     16 C         141.7324  142.9195  161.8278 C.ar    1  UNL1       -0.0024
     17 C         141.6538  144.3888  162.1193 C.ar    1  UNL1        0.0005
     18 C         141.1040  145.3296  161.0883 C.ar    1  UNL1        0.0369
     19 C         140.6329  144.8010  159.7659 C.ar    1  UNL1        0.1468
     20 C         140.7116  143.3316  159.4746 C.ar    1  UNL1        0.0369
     21 C         141.2613  142.3909  160.5055 C.ar    1  UNL1        0.0005
     22 O         140.0832  145.7416  158.7349 O.3     1  UNL1       -0.4045
     23 C         140.7439  145.8527  157.3929 C.3     1  UNL1        0.5753
     24 F         141.4047  145.9638  156.0508 F       1  UNL1       -0.1328
     25 F         142.0305  146.2423  158.0585 F       1  UNL1       -0.1328
     26 F         139.4574  145.4631  156.7272 F       1  UNL1       -0.1328
     27 C         140.0164  138.1018  165.0402 C.3     1  UNL1        0.0220
     28 C         139.4620  139.3617  165.6362 C.3     1  UNL1        0.0823
     29 C         138.1636  139.9205  165.1346 C.3     1  UNL1        0.0656
     30 C         138.1549  141.1739  164.3106 C.ar    1  UNL1        0.0607
     31 C         137.8418  141.1059  162.8452 C.ar    1  UNL1        0.0148
     32 C         137.8332  142.3593  162.0212 C.ar    1  UNL1        0.0028
     33 C         138.1376  143.6806  162.6626 C.ar    1  UNL1        0.0207
     34 C         138.4508  143.7486  164.1280 C.ar    1  UNL1        0.0984
     35 N         138.4594  142.4952  164.9520 N.ar    1  UNL1       -0.2481
@<TRIPOS>BOND
     1    27    28    1
     2    28    29    1
     3    29    30    1
     4    30    31   ar
     5    31    32   ar
     6    32    33   ar
     7    33    34   ar
     8    34    35   ar
     9    28     1    1
    10     1     2   am
    11     2     3    2
    12     2     4    1
    13     4     5   ar
    14     5     6   ar
    15     6     7   ar
    16     7     8   ar
    17     8     9   ar
    18     9    10    1
    19    10    11    1
    20    11    12    2
    21    11    13   am
    22    13    15    1
    23    15    16    1
    24    16    17   ar
    25    17    18   ar
    26    18    19   ar
    27    19    22    1
    28    22    23    1
    29    23    24    1
    30    23    25    1
    31    23    26    1
    32    19    20   ar
    33    20    21   ar
    34    35    30   ar
    35    10     1    1
    36    21    16   ar
    37     9     4   ar
    38    13    14    1
@<TRIPOS>MOLECULE
*****
 35 38 0 0 0
SMALL
GASTEIGER

@<TRIPOS>ATOM
      1 N         139.0243  140.1144  161.6429 N.am    1  UNL1       -0.2674
      2 C         138.2469  140.1063  160.3601 C.2     1  UNL1        0.2493
      3 O         136.8766  139.5289  160.1632 O.2     1  UNL1       -0.2699
      4 C         139.0805  140.7769  159.3086 C.ar    1  UNL1        0.0516
      5 C         138.8295  141.0573  157.8566 C.ar    1  UNL1        0.0043
      6 C         139.8711  141.7603  157.0376 C.ar    1  UNL1        0.0001
      7 C         141.1637  142.1829  157.6706 C.ar    1  UNL1       -0.0003
      8 C         141.4146  141.9025  159.1226 C.ar    1  UNL1       -0.0021
      9 C         140.3730  141.1995  159.9416 C.ar    1  UNL1        0.0089
     10 C         140.3383  140.7900  161.3842 C.3     1  UNL1        0.1751
     11 C         141.4266  141.0165  162.3914 C.2     1  UNL1        0.2451
     12 O         141.7830  142.4122  162.8095 O.2     1  UNL1       -0.2729
     13 N         142.1585  139.8471  162.9805 N.am    1  UNL1       -0.2988
     14 H         141.9246  138.9310  162.7061 H       1  UNL1        0.1498
     15 C         143.2468  140.0735  163.9877 C.3     1  UNL1        0.1164
     16 C         142.9017  140.5242  165.3761 C.ar    1  UNL1       -0.0024
     17 C         142.0761  139.6439  166.2668 C.ar    1  UNL1        0.0005
     18 C         141.7309  140.0945  167.6554 C.ar    1  UNL1        0.0369
     19 C         142.2114  141.4254  168.1531 C.ar    1  UNL1        0.1468
     20 C         143.0370  142.3057  167.2623 C.ar    1  UNL1        0.0369
     21 C         143.3822  141.8551  165.8739 C.ar    1  UNL1        0.0005
     22 O         141.8663  141.8761  169.5415 O.3     1  UNL1       -0.4045
     23 C         141.2458  143.2242  169.7599 C.3     1  UNL1        0.5753
     24 F         140.6253  144.5723  169.9783 F       1  UNL1       -0.1328
     25 F         139.9827  142.7489  169.1050 F       1  UNL1       -0.1328
     26 F         142.5088  143.6995  170.4148 F       1  UNL1       -0.1328
     27 C         138.8952  138.1271  163.3113 C.3     1  UNL1        0.0220
     28 C         138.5678  139.5466  162.9541 C.3     1  UNL1        0.0823
     29 C         137.7840  140.3983  163.9080 C.3     1  UNL1        0.0656
     30 C         138.2784  141.7670  164.2716 C.ar    1  UNL1        0.0607
     31 C         139.3003  141.9314  165.3572 C.ar    1  UNL1        0.0148
     32 C         139.7948  143.3001  165.7208 C.ar    1  UNL1        0.0028
     33 C         139.2673  144.5044  164.9988 C.ar    1  UNL1        0.0207
     34 C         138.2453  144.3401  163.9131 C.ar    1  UNL1        0.0984
     35 N         137.7509  142.9714  163.5495 N.ar    1  UNL1       -0.2481
@<TRIPOS>BOND
     1    27    28    1
     2    28    29    1
     3    29    30    1
     4    30    31   ar
     5    31    32   ar
     6    32    33   ar
     7    33    34   ar
     8    34    35   ar
     9    28     1    1
    10     1     2   am
    11     2     3    2
    12     2     4    1
    13     4     5   ar
    14     5     6   ar
    15     6     7   ar
    16     7     8   ar
    17     8     9   ar
    18     9    10    1
    19    10    11    1
    20    11    12    2
    21    11    13   am
    22    13    15    1
    23    15    16    1
    24    16    17   ar
    25    17    18   ar
    26    18    19   ar
    27    19    22    1
    28    22    23    1
    29    23    24    1
    30    23    25    1
    31    23    26    1
    32    19    20   ar
    33    20    21   ar
    34    35    30   ar
    35    10     1    1
    36    21    16   ar
    37     9     4   ar
    38    13    14    1
@<TRIPOS>MOLECULE
*****
 35 38 0 0 0
SMALL
GASTEIGER

@<TRIPOS>ATOM
      1 N         139.4882  140.4469  160.1950 N.am    1  UNL1       -0.2674
      2 C         138.9887  139.8378  158.9185 C.2     1  UNL1        0.2493
      3 O         137.6426  140.0698  158.2985 O.2     1  UNL1       -0.2699
      4 C         140.0715  138.9560  158.3707 C.ar    1  UNL1        0.0516
      5 C         140.1442  138.1031  157.1390 C.ar    1  UNL1        0.0043
      6 C         141.3857  137.3142  156.8453 C.ar    1  UNL1        0.0001
      7 C         142.5545  137.3783  157.7833 C.ar    1  UNL1       -0.0003
      8 C         142.4818  138.2313  159.0150 C.ar    1  UNL1       -0.0021
      9 C         141.2403  139.0201  159.3087 C.ar    1  UNL1        0.0089
     10 C         140.8798  139.9415  160.4361 C.3     1  UNL1        0.1751
     11 C         141.7569  140.2954  161.6003 C.2     1  UNL1        0.2451
     12 O         142.7760  141.3878  161.4669 O.2     1  UNL1       -0.2729
     13 N         141.6149  139.5567  162.8982 N.am    1  UNL1       -0.2988
     14 H         140.9460  138.8397  162.9859 H       1  UNL1        0.1498
     15 C         142.4921  139.9106  164.0624 C.3     1  UNL1        0.1164
     16 C         141.9418  140.7247  165.1957 C.ar    1  UNL1       -0.0024
     17 C         141.3419  142.0732  164.9282 C.ar    1  UNL1        0.0005
     18 C         140.7916  142.8875  166.0616 C.ar    1  UNL1        0.0369
     19 C         140.8412  142.3531  167.4623 C.ar    1  UNL1        0.1468
     20 C         141.4412  141.0046  167.7297 C.ar    1  UNL1        0.0369
     21 C         141.9915  140.1904  166.5964 C.ar    1  UNL1        0.0005
     22 O         140.2910  143.1673  168.5956 O.3     1  UNL1       -0.4045
     23 C         140.5698  142.7640  170.0132 C.3     1  UNL1        0.5753
     24 F         140.8487  142.3608  171.4308 F       1  UNL1       -0.1328
     25 F         141.8634  143.5225  169.9745 F       1  UNL1       -0.1328
     26 F         139.2763  142.0056  170.0519 F       1  UNL1       -0.1328
     27 C         139.0243  142.8646  161.0250 C.3     1  UNL1        0.0220
     28 C         138.7295  141.3948  161.0757 C.3     1  UNL1        0.0823
     29 C         137.6759  140.8729  162.0070 C.3     1  UNL1        0.0656
     30 C         138.0670  140.0340  163.1874 C.ar    1  UNL1        0.0607
     31 C         138.0011  140.6091  164.5711 C.ar    1  UNL1        0.0148
     32 C         138.3923  139.7702  165.7515 C.ar    1  UNL1        0.0028
     33 C         138.8494  138.3561  165.5480 C.ar    1  UNL1        0.0207
     34 C         138.9153  137.7809  164.1642 C.ar    1  UNL1        0.0984
     35 N         138.5242  138.6198  162.9839 N.ar    1  UNL1       -0.2481
@<TRIPOS>BOND
     1    27    28    1
     2    28    29    1
     3    29    30    1
     4    30    31   ar
     5    31    32   ar
     6    32    33   ar
     7    33    34   ar
     8    34    35   ar
     9    28     1    1
    10     1     2   am
    11     2     3    2
    12     2     4    1
    13     4     5   ar
    14     5     6   ar
    15     6     7   ar
    16     7     8   ar
    17     8     9   ar
    18     9    10    1
    19    10    11    1
    20    11    12    2
    21    11    13   am
    22    13    15    1
    23    15    16    1
    24    16    17   ar
    25    17    18   ar
    26    18    19   ar
    27    19    22    1
    28    22    23    1
    29    23    24    1
    30    23    25    1
    31    23    26    1
    32    19    20   ar
    33    20    21   ar
    34    35    30   ar
    35    10     1    1
    36    21    16   ar
    37     9     4   ar
    38    13    14    1
@<TRIPOS>MOLECULE
*****
 35 38 0 0 0
SMALL
GASTEIGER

@<TRIPOS>ATOM
      1 N         139.8558  139.4883  166.1863 N.am    1  UNL1       -0.2674
      2 C         139.0219  139.4828  167.4331 C.2     1  UNL1        0.2493
      3 O         137.8235  138.6176  167.6885 O.2     1  UNL1       -0.2699
      4 C         139.5968  140.4944  168.3798 C.ar    1  UNL1        0.0516
      5 C         139.1910  140.9227  169.7588 C.ar    1  UNL1        0.0043
      6 C         139.9745  141.9818  170.4761 C.ar    1  UNL1        0.0001
      7 C         141.1637  142.6125  169.8143 C.ar    1  UNL1       -0.0003
      8 C         141.5695  142.1842  168.4353 C.ar    1  UNL1       -0.0021
      9 C         140.7860  141.1251  167.7180 C.ar    1  UNL1        0.0089
     10 C         140.9461  140.5033  166.3624 C.3     1  UNL1        0.1751
     11 C         142.0098  140.8378  165.3590 C.2     1  UNL1        0.2451
     12 O         141.8734  142.0603  164.5008 O.2     1  UNL1       -0.2729
     13 N         143.2099  139.9496  165.2138 N.am    1  UNL1       -0.2988
     14 H         143.2994  139.1472  165.7771 H       1  UNL1        0.1498
     15 C         144.2735  140.2841  164.2105 C.3     1  UNL1        0.1164
     16 C         144.0764  139.9368  162.7646 C.ar    1  UNL1       -0.0024
     17 C         144.1551  141.0088  161.7184 C.ar    1  UNL1        0.0005
     18 C         143.9580  140.6615  160.2724 C.ar    1  UNL1        0.0369
     19 C         143.6822  139.2422  159.8728 C.ar    1  UNL1        0.1468
     20 C         143.6035  138.1703  160.9192 C.ar    1  UNL1        0.0369
     21 C         143.8006  138.5175  162.3650 C.ar    1  UNL1        0.0005
     22 O         143.4851  138.8949  158.4270 O.3     1  UNL1       -0.4045
     23 C         142.2411  138.1793  157.9905 C.3     1  UNL1        0.5753
     24 F         140.9972  137.4638  157.5540 F       1  UNL1       -0.1328
     25 F         143.0659  136.9953  157.5809 F       1  UNL1       -0.1328
     26 F         141.4163  139.3633  158.4001 F       1  UNL1       -0.1328
     27 C         140.4761  137.4037  164.7651 C.3     1  UNL1        0.0220
     28 C         139.6378  138.6295  164.9759 C.3     1  UNL1        0.0823
     29 C         138.5813  138.9966  163.9764 C.3     1  UNL1        0.0656
     30 C         138.8478  140.0705  162.9636 C.ar    1  UNL1        0.0607
     31 C         140.1270  140.0620  162.1803 C.ar    1  UNL1        0.0148
     32 C         140.3934  141.1360  161.1676 C.ar    1  UNL1        0.0028
     33 C         139.3807  142.2184  160.9382 C.ar    1  UNL1        0.0207
     34 C         138.1014  142.2269  161.7215 C.ar    1  UNL1        0.0984
     35 N         137.8350  141.1530  162.7342 N.ar    1  UNL1       -0.2481
@<TRIPOS>BOND
     1    27    28    1
     2    28    29    1
     3    29    30    1
     4    30    31   ar
     5    31    32   ar
     6    32    33   ar
     7    33    34   ar
     8    34    35   ar
     9    28     1    1
    10     1     2   am
    11     2     3    2
    12     2     4    1
    13     4     5   ar
    14     5     6   ar
    15     6     7   ar
    16     7     8   ar
    17     8     9   ar
    18     9    10    1
    19    10    11    1
    20    11    12    2
    21    11    13   am
    22    13    15    1
    23    15    16    1
    24    16    17   ar
    25    17    18   ar
    26    18    19   ar
    27    19    22    1
    28    22    23    1
    29    23    24    1
    30    23    25    1
    31    23    26    1
    32    19    20   ar
    33    20    21   ar
    34    35    30   ar
    35    10     1    1
    36    21    16   ar
    37     9     4   ar
    38    13    14    1
@<TRIPOS>MOLECULE
*****
 35 38 0 0 0
SMALL
GASTEIGER

@<TRIPOS>ATOM
      1 N         142.1992  143.5494  161.2712 N.am    1  UNL1       -0.2674
      2 C         141.8871  144.0354  159.8868 C.2     1  UNL1        0.2493
      3 O         141.9785  145.4543  159.4090 O.2     1  UNL1       -0.2699
      4 C         141.4677  142.8533  159.0641 C.ar    1  UNL1        0.0516
      5 C         141.0446  142.7275  157.6306 C.ar    1  UNL1        0.0043
      6 C         140.6742  141.3852  157.0729 C.ar    1  UNL1        0.0001
      7 C         140.7271  140.1687  157.9488 C.ar    1  UNL1       -0.0003
      8 C         141.1502  140.2944  159.3824 C.ar    1  UNL1       -0.0021
      9 C         141.5206  141.6368  159.9400 C.ar    1  UNL1        0.0089
     10 C         141.9726  142.0670  161.3040 C.3     1  UNL1        0.1751
     11 C         142.1644  141.1719  162.4923 C.2     1  UNL1        0.2451
     12 O         140.9767  140.5362  163.1520 O.2     1  UNL1       -0.2729
     13 N         143.5441  140.9124  163.0210 N.am    1  UNL1       -0.2988
     14 H         144.3236  141.3296  162.5880 H       1  UNL1        0.1498
     15 C         143.7359  140.0173  164.2092 C.3     1  UNL1        0.1164
     16 C         143.2987  140.4731  165.5698 C.ar    1  UNL1       -0.0024
     17 C         143.3836  141.9249  165.9375 C.ar    1  UNL1        0.0005
     18 C         142.9464  142.3808  167.2981 C.ar    1  UNL1        0.0369
     19 C         142.4243  141.3849  168.2909 C.ar    1  UNL1        0.1468
     20 C         142.3395  139.9331  167.9231 C.ar    1  UNL1        0.0369
     21 C         142.7766  139.4772  166.5626 C.ar    1  UNL1        0.0005
     22 O         141.9871  141.8407  169.6514 O.3     1  UNL1       -0.4045
     23 C         141.3663  143.1951  169.8250 C.3     1  UNL1        0.5753
     24 F         140.7455  144.5495  169.9985 F       1  UNL1       -0.1328
     25 F         140.1204  142.7112  169.1441 F       1  UNL1       -0.1328
     26 F         142.6122  143.6790  170.5058 F       1  UNL1       -0.1328
     27 C         144.1153  144.4681  162.7659 C.3     1  UNL1        0.0220
     28 C         142.6573  144.3970  162.4208 C.3     1  UNL1        0.0823
     29 C         141.6574  145.1736  163.2253 C.3     1  UNL1        0.0656
     30 C         140.3701  144.5289  163.6460 C.ar    1  UNL1        0.0607
     31 C         140.3494  143.5871  164.8133 C.ar    1  UNL1        0.0148
     32 C         139.0620  142.9424  165.2341 C.ar    1  UNL1        0.0028
     33 C         137.7954  143.2394  164.4876 C.ar    1  UNL1        0.0207
     34 C         137.8160  144.1813  163.3202 C.ar    1  UNL1        0.0984
     35 N         139.1034  144.8260  162.8995 N.ar    1  UNL1       -0.2481
@<TRIPOS>BOND
     1    27    28    1
     2    28    29    1
     3    29    30    1
     4    30    31   ar
     5    31    32   ar
     6    32    33   ar
     7    33    34   ar
     8    34    35   ar
     9    28     1    1
    10     1     2   am
    11     2     3    2
    12     2     4    1
    13     4     5   ar
    14     5     6   ar
    15     6     7   ar
    16     7     8   ar
    17     8     9   ar
    18     9    10    1
    19    10    11    1
    20    11    12    2
    21    11    13   am
    22    13    15    1
    23    15    16    1
    24    16    17   ar
    25    17    18   ar
    26    18    19   ar
    27    19    22    1
    28    22    23    1
    29    23    24    1
    30    23    25    1
    31    23    26    1
    32    19    20   ar
    33    20    21   ar
    34    35    30   ar
    35    10     1    1
    36    21    16   ar
    37     9     4   ar
    38    13    14    1
@<TRIPOS>MOLECULE
*****
 35 38 0 0 0
SMALL
GASTEIGER

@<TRIPOS>ATOM
      1 N         140.0770  144.0347  161.7825 N.am    1  UNL1       -0.2674
      2 C         140.0015  145.2207  160.8673 C.2     1  UNL1        0.2493
      3 O         139.1499  146.4387  161.0708 O.2     1  UNL1       -0.2699
      4 C         140.9270  144.9751  159.7127 C.ar    1  UNL1        0.0516
      5 C         141.2638  145.7967  158.5038 C.ar    1  UNL1        0.0043
      6 C         142.2481  145.2805  157.4966 C.ar    1  UNL1        0.0001
      7 C         142.8957  143.9426  157.6983 C.ar    1  UNL1       -0.0003
      8 C         142.5589  143.1209  158.9071 C.ar    1  UNL1       -0.0021
      9 C         141.5746  143.6372  159.9143 C.ar    1  UNL1        0.0089
     10 C         141.0493  143.0560  161.1935 C.3     1  UNL1        0.1751
     11 C         141.4295  141.7291  161.7806 C.2     1  UNL1        0.2451
     12 O         142.8750  141.3452  161.8931 O.2     1  UNL1       -0.2729
     13 N         140.3639  140.7860  162.2554 N.am    1  UNL1       -0.2988
     14 H         139.4150  141.0379  162.1816 H       1  UNL1        0.1498
     15 C         140.7441  139.4590  162.8425 C.3     1  UNL1        0.1164
     16 C         141.3014  139.3864  164.2332 C.ar    1  UNL1       -0.0024
     17 C         140.4115  139.6467  165.4123 C.ar    1  UNL1        0.0005
     18 C         140.9688  139.5740  166.8031 C.ar    1  UNL1        0.0369
     19 C         142.4160  139.2410  167.0147 C.ar    1  UNL1        0.1468
     20 C         143.3059  138.9807  165.8355 C.ar    1  UNL1        0.0369
     21 C         142.7486  139.0533  164.4448 C.ar    1  UNL1        0.0005
     22 O         142.9734  139.1683  168.4054 O.3     1  UNL1       -0.4045
     23 C         142.6350  140.2338  169.4056 C.3     1  UNL1        0.5753
     24 F         142.2966  141.2992  170.4058 F       1  UNL1       -0.1328
     25 F         143.2183  141.2735  168.4953 F       1  UNL1       -0.1328
     26 F         142.0516  139.1940  170.3158 F       1  UNL1       -0.1328
     27 C         137.8992  143.3619  163.0292 C.3     1  UNL1        0.0220
     28 C         139.3142  143.8583  163.0620 C.3     1  UNL1        0.0823
     29 C         139.9665  144.1784  164.3742 C.3     1  UNL1        0.0656
     30 C         141.4503  144.0242  164.5316 C.ar    1  UNL1        0.0607
     31 C         142.0062  142.8624  165.3004 C.ar    1  UNL1        0.0148
     32 C         143.4899  142.7082  165.4578 C.ar    1  UNL1        0.0028
     33 C         144.4177  143.7158  164.8464 C.ar    1  UNL1        0.0207
     34 C         143.8618  144.8777  164.0776 C.ar    1  UNL1        0.0984
     35 N         142.3781  145.0319  163.9201 N.ar    1  UNL1       -0.2481
@<TRIPOS>BOND
     1    27    28    1
     2    28    29    1
     3    29    30    1
     4    30    31   ar
     5    31    32   ar
     6    32    33   ar
     7    33    34   ar
     8    34    35   ar
     9    28     1    1
    10     1     2   am
    11     2     3    2
    12     2     4    1
    13     4     5   ar
    14     5     6   ar
    15     6     7   ar
    16     7     8   ar
    17     8     9   ar
    18     9    10    1
    19    10    11    1
    20    11    12    2
    21    11    13   am
    22    13    15    1
    23    15    16    1
    24    16    17   ar
    25    17    18   ar
    26    18    19   ar
    27    19    22    1
    28    22    23    1
    29    23    24    1
    30    23    25    1
    31    23    26    1
    32    19    20   ar
    33    20    21   ar
    34    35    30   ar
    35    10     1    1
    36    21    16   ar
    37     9     4   ar
    38    13    14    1
