@<TRIPOS>MOLECULE
*****
 41 46 0 0 0
SMALL
GASTEIGER

@<TRIPOS>ATOM
      1 N         139.8362  145.5461  155.9747 N.3     1  UNL1       -0.2676
      2 C         139.1111  144.2702  155.6646 C.3     1  UNL1        0.0746
      3 C         138.8180  143.2888  156.7604 C.3     1  UNL1        0.0449
      4 C         139.2499  143.5834  158.1663 C.3     1  UNL1        0.1391
      5 C         139.9750  144.8593  158.4764 C.3     1  UNL1        0.0449
      6 C         140.2681  145.8407  157.3806 C.3     1  UNL1        0.0746
      7 C         139.6180  143.7401  159.6120 C.2     1  UNL1        0.2529
      8 O         140.3439  144.9057  160.2156 O.2     1  UNL1       -0.2724
      9 N         139.1328  142.5265  160.3481 N.am    1  UNL1       -0.1907
     10 C         138.4647  141.6197  159.3573 C.2     1  UNL1        0.3220
     11 O         137.8349  140.2928  159.6615 O.2     1  UNL1       -0.2512
     12 N         138.5371  142.2729  158.0089 N.am    1  UNL1       -0.2212
     13 C         139.2882  142.2654  161.8170 C.ar    1  UNL1        0.0622
     14 C         138.1284  142.4794  162.7437 C.ar    1  UNL1        0.0154
     15 C         138.2838  142.2184  164.2125 C.ar    1  UNL1        0.0013
     16 C         139.5992  141.7434  164.7548 C.ar    1  UNL1        0.0001
     17 C         140.7591  141.5294  163.8281 C.ar    1  UNL1        0.0013
     18 C         140.6037  141.7904  162.3592 C.ar    1  UNL1        0.0154
     19 C         139.7547  141.4824  166.2237 C.ar    1  UNL1        0.0000
     20 C         139.3150  140.1705  166.8030 C.ar    1  UNL1        0.0000
     21 C         139.4705  139.9094  168.2719 C.ar    1  UNL1        0.0011
     22 C         140.0656  140.9604  169.1616 C.ar    1  UNL1        0.0140
     23 C         140.5053  142.2723  168.5823 C.ar    1  UNL1        0.0011
     24 C         140.3498  142.5333  167.1133 C.ar    1  UNL1        0.0000
     25 C         140.2211  140.6994  170.6304 C.2     1  UNL1        0.0729
     26 O         139.5705  139.4991  171.2519 O.co2   1  UNL1       -0.5446
     27 O         141.0272  141.6386  171.4779 O.co2   1  UNL1       -0.5446
     28 C         137.9924  141.7139  156.7281 C.ar    1  UNL1        0.1583
     29 C         138.8435  140.8164  155.8795 C.ar    1  UNL1        0.1335
     30 N         138.2987  140.2574  154.5986 N.ar    1  UNL1       -0.2378
     31 C         136.9028  140.5959  154.1662 C.ar    1  UNL1        0.1196
     32 C         136.0517  141.4934  155.0147 C.ar    1  UNL1        0.1210
     33 N         136.5965  142.0524  156.2956 N.ar    1  UNL1       -0.2255
     34 C         140.1294  146.5276  154.8788 C.3     1  UNL1        0.1183
     35 C         140.8764  148.5335  152.7767 C.3     1  UNL1        0.0323
     36 C         140.0502  148.9549  153.9556 C.ar    1  UNL1       -0.0069
     37 C         139.5976  150.3792  154.0835 C.ar    1  UNL1       -0.0015
     38 C         138.7714  150.8006  155.2624 C.ar    1  UNL1        0.0203
     39 C         138.3978  149.7977  156.3134 C.ar    1  UNL1        0.0985
     40 N         138.8505  148.3733  156.1856 N.ar    1  UNL1       -0.2471
     41 C         139.6767  147.9519  155.0067 C.ar    1  UNL1        0.0712
@<TRIPOS>UNITY_ATOM_ATTR
26 1
charge -1
@<TRIPOS>BOND
     1    35    36    1
     2    36    37   ar
     3    37    38   ar
     4    38    39   ar
     5    39    40   ar
     6    40    41   ar
     7    41    34    1
     8    34     1    1
     9     1     2    1
    10     2     3    1
    11     3     4    1
    12     4     5    1
    13     5     6    1
    14     4     7    1
    15     7     8    2
    16     7     9   am
    17     9    13    1
    18    13    14   ar
    19    14    15   ar
    20    15    16   ar
    21    16    19    1
    22    19    20   ar
    23    20    21   ar
    24    21    22   ar
    25    22    25    1
    26    25    26   ar
    27    25    27   ar
    28    22    23   ar
    29    23    24   ar
    30    16    17   ar
    31    17    18   ar
    32     9    10   am
    33    10    11    2
    34    10    12   am
    35    12    28    1
    36    28    29   ar
    37    29    30   ar
    38    30    31   ar
    39    31    32   ar
    40    32    33   ar
    41    41    36   ar
    42     6     1    1
    43    18    13   ar
    44    33    28   ar
    45    12     4    1
    46    24    19   ar
@<TRIPOS>MOLECULE
*****
 41 46 0 0 0
SMALL
GASTEIGER

@<TRIPOS>ATOM
      1 N         142.6450  136.9152  156.9854 N.3     1  UNL1       -0.2676
      2 C         141.6423  137.9121  156.4845 C.3     1  UNL1        0.0746
      3 C         140.9582  138.8363  157.4477 C.3     1  UNL1        0.0449
      4 C         141.2767  138.7637  158.9117 C.3     1  UNL1        0.1391
      5 C         142.2793  137.7668  159.4125 C.3     1  UNL1        0.0449
      6 C         142.9635  136.8426  158.4494 C.3     1  UNL1        0.0746
      7 C         141.4917  138.8074  160.3956 C.2     1  UNL1        0.2529
      8 O         142.4285  137.9346  161.1768 O.2     1  UNL1       -0.2724
      9 N         140.6053  139.8774  160.9610 N.am    1  UNL1       -0.1907
     10 C         139.8425  140.4949  159.8266 C.2     1  UNL1        0.3220
     11 O         138.8407  141.6055  159.9390 O.2     1  UNL1       -0.2512
     12 N         140.2574  139.8066  158.5600 N.am    1  UNL1       -0.2212
     13 C         140.5001  140.2622  162.4070 C.ar    1  UNL1        0.0622
     14 C         140.9733  141.6114  162.8603 C.ar    1  UNL1        0.0154
     15 C         140.8681  141.9962  164.3063 C.ar    1  UNL1        0.0013
     16 C         140.2899  141.0318  165.2989 C.ar    1  UNL1        0.0001
     17 C         139.8167  139.6825  164.8456 C.ar    1  UNL1        0.0013
     18 C         139.9218  139.2977  163.3996 C.ar    1  UNL1        0.0154
     19 C         140.1847  141.4166  166.7449 C.ar    1  UNL1        0.0000
     20 C         140.5154  142.8151  167.1748 C.ar    1  UNL1        0.0000
     21 C         140.4102  143.1999  168.6208 C.ar    1  UNL1        0.0011
     22 C         139.9744  142.1862  169.6369 C.ar    1  UNL1        0.0140
     23 C         139.6438  140.7877  169.2070 C.ar    1  UNL1        0.0011
     24 C         139.7489  140.4029  167.7610 C.ar    1  UNL1        0.0000
     25 C         139.8693  142.5710  171.0829 C.2     1  UNL1        0.0729
     26 O         138.9047  143.6388  171.5066 O.co2   1  UNL1       -0.5446
     27 O         140.7287  141.8881  172.1052 O.co2   1  UNL1       -0.5446
     28 C         139.7434  140.1082  157.1835 C.ar    1  UNL1        0.1583
     29 C         140.4054  141.1657  156.3508 C.ar    1  UNL1        0.1335
     30 N         139.8913  141.4673  154.9742 N.ar    1  UNL1       -0.2378
     31 C         138.7153  140.7113  154.4304 C.ar    1  UNL1        0.1196
     32 C         138.0534  139.6538  155.2632 C.ar    1  UNL1        0.1210
     33 N         138.5675  139.3523  156.6397 N.ar    1  UNL1       -0.2255
     34 C         143.3291  135.9909  156.0222 C.3     1  UNL1        0.1183
     35 C         141.1349  134.6400  154.4858 C.3     1  UNL1        0.0323
     36 C         142.0377  133.8327  155.3708 C.ar    1  UNL1       -0.0069
     37 C         141.8433  132.3499  155.4877 C.ar    1  UNL1       -0.0015
     38 C         142.7460  131.5426  156.3727 C.ar    1  UNL1        0.0203
     39 C         143.8431  132.2180  157.1409 C.ar    1  UNL1        0.0985
     40 N         144.0375  133.7008  157.0241 N.ar    1  UNL1       -0.2471
     41 C         143.1348  134.5081  156.1391 C.ar    1  UNL1        0.0712
@<TRIPOS>UNITY_ATOM_ATTR
26 1
charge -1
@<TRIPOS>BOND
     1    35    36    1
     2    36    37   ar
     3    37    38   ar
     4    38    39   ar
     5    39    40   ar
     6    40    41   ar
     7    41    34    1
     8    34     1    1
     9     1     2    1
    10     2     3    1
    11     3     4    1
    12     4     5    1
    13     5     6    1
    14     4     7    1
    15     7     8    2
    16     7     9   am
    17     9    13    1
    18    13    14   ar
    19    14    15   ar
    20    15    16   ar
    21    16    19    1
    22    19    20   ar
    23    20    21   ar
    24    21    22   ar
    25    22    25    1
    26    25    26   ar
    27    25    27   ar
    28    22    23   ar
    29    23    24   ar
    30    16    17   ar
    31    17    18   ar
    32     9    10   am
    33    10    11    2
    34    10    12   am
    35    12    28    1
    36    28    29   ar
    37    29    30   ar
    38    30    31   ar
    39    31    32   ar
    40    32    33   ar
    41    41    36   ar
    42     6     1    1
    43    18    13   ar
    44    33    28   ar
    45    12     4    1
    46    24    19   ar
@<TRIPOS>MOLECULE
*****
 41 46 0 0 0
SMALL
GASTEIGER

@<TRIPOS>ATOM
      1 N         140.8114  138.4035  156.1883 N.3     1  UNL1       -0.2676
      2 C         139.6770  139.3808  156.1002 C.3     1  UNL1        0.0746
      3 C         139.3072  140.2102  157.2940 C.3     1  UNL1        0.0449
      4 C         140.0719  140.0623  158.5759 C.3     1  UNL1        0.1391
      5 C         141.2063  139.0850  158.6641 C.3     1  UNL1        0.0449
      6 C         141.5761  138.2555  157.4702 C.3     1  UNL1        0.0746
      7 C         140.7416  140.0243  159.9176 C.2     1  UNL1        0.2529
      8 O         141.8986  139.1501  160.3010 O.2     1  UNL1       -0.2724
      9 N         140.0511  141.0139  160.8087 N.am    1  UNL1       -0.1907
     10 C         138.9546  141.6636  160.0176 C.2     1  UNL1        0.3220
     11 O         138.0110  142.7165  160.5185 O.2     1  UNL1       -0.2512
     12 N         138.9674  141.0755  158.6378 N.am    1  UNL1       -0.2212
     13 C         140.3964  141.3031  162.2394 C.ar    1  UNL1        0.0622
     14 C         139.6009  140.6743  163.3447 C.ar    1  UNL1        0.0154
     15 C         139.9462  140.9635  164.7755 C.ar    1  UNL1        0.0013
     16 C         141.0870  141.8814  165.1010 C.ar    1  UNL1        0.0001
     17 C         141.8825  142.5102  163.9956 C.ar    1  UNL1        0.0013
     18 C         141.5372  142.2210  162.5648 C.ar    1  UNL1        0.0154
     19 C         141.4323  142.1706  166.5317 C.ar    1  UNL1        0.0000
     20 C         142.8211  141.9106  167.0354 C.ar    1  UNL1        0.0000
     21 C         143.1665  142.1998  168.4661 C.ar    1  UNL1        0.0011
     22 C         142.1229  142.7489  169.3933 C.ar    1  UNL1        0.0140
     23 C         140.7341  143.0089  168.8897 C.ar    1  UNL1        0.0011
     24 C         140.3888  142.7197  167.4588 C.ar    1  UNL1        0.0000
     25 C         142.4683  143.0381  170.8241 C.2     1  UNL1        0.0729
     26 O         143.4913  144.0850  171.1519 O.co2   1  UNL1       -0.5446
     27 O         141.7905  142.2804  171.9271 O.co2   1  UNL1       -0.5446
     28 C         138.0390  141.4370  157.5166 C.ar    1  UNL1        0.1583
     29 C         138.3616  142.5950  156.6194 C.ar    1  UNL1        0.1335
     30 N         137.4330  142.9565  155.4981 N.ar    1  UNL1       -0.2378
     31 C         136.1818  142.1600  155.2741 C.ar    1  UNL1        0.1196
     32 C         135.8592  141.0020  156.1713 C.ar    1  UNL1        0.1210
     33 N         136.7878  140.6406  157.2925 N.ar    1  UNL1       -0.2255
     34 C         141.1812  137.5740  154.9944 C.3     1  UNL1        0.1183
     35 C         144.1620  137.3593  155.2569 C.3     1  UNL1        0.0323
     36 C         143.3131  136.1240  155.3149 C.ar    1  UNL1       -0.0069
     37 C         143.9545  134.7813  155.5041 C.ar    1  UNL1       -0.0015
     38 C         143.1056  133.5460  155.5621 C.ar    1  UNL1        0.0203
     39 C         141.6153  133.6533  155.4308 C.ar    1  UNL1        0.0985
     40 N         140.9737  134.9960  155.2416 N.ar    1  UNL1       -0.2471
     41 C         141.8227  136.2313  155.1836 C.ar    1  UNL1        0.0712
@<TRIPOS>UNITY_ATOM_ATTR
26 1
charge -1
@<TRIPOS>BOND
     1    35    36    1
     2    36    37   ar
     3    37    38   ar
     4    38    39   ar
     5    39    40   ar
     6    40    41   ar
     7    41    34    1
     8    34     1    1
     9     1     2    1
    10     2     3    1
    11     3     4    1
    12     4     5    1
    13     5     6    1
    14     4     7    1
    15     7     8    2
    16     7     9   am
    17     9    13    1
    18    13    14   ar
    19    14    15   ar
    20    15    16   ar
    21    16    19    1
    22    19    20   ar
    23    20    21   ar
    24    21    22   ar
    25    22    25    1
    26    25    26   ar
    27    25    27   ar
    28    22    23   ar
    29    23    24   ar
    30    16    17   ar
    31    17    18   ar
    32     9    10   am
    33    10    11    2
    34    10    12   am
    35    12    28    1
    36    28    29   ar
    37    29    30   ar
    38    30    31   ar
    39    31    32   ar
    40    32    33   ar
    41    41    36   ar
    42     6     1    1
    43    18    13   ar
    44    33    28   ar
    45    12     4    1
    46    24    19   ar
@<TRIPOS>MOLECULE
*****
 41 46 0 0 0
SMALL
GASTEIGER

@<TRIPOS>ATOM
      1 N         143.3981  137.7088  156.3475 N.3     1  UNL1       -0.2676
      2 C         143.9200  139.0893  156.0796 C.3     1  UNL1        0.0746
      3 C         143.9375  140.1106  157.1780 C.3     1  UNL1        0.0449
      4 C         143.4331  139.7515  158.5442 C.3     1  UNL1        0.1391
      5 C         142.9112  138.3710  158.8121 C.3     1  UNL1        0.0449
      6 C         142.8937  137.3497  157.7137 C.3     1  UNL1        0.0746
      7 C         142.9640  139.5393  159.9531 C.2     1  UNL1        0.2529
      8 O         142.3950  138.2685  160.5110 O.2     1  UNL1       -0.2724
      9 N         143.1638  140.8212  160.7062 N.am    1  UNL1       -0.1907
     10 C         143.7564  141.8256  159.7627 C.2     1  UNL1        0.3220
     11 O         144.1189  143.2422  160.0968 O.2     1  UNL1       -0.2512
     12 N         143.9228  141.1645  158.4266 N.am    1  UNL1       -0.2212
     13 C         142.8297  141.0571  162.1494 C.ar    1  UNL1        0.0622
     14 C         143.8765  140.8546  163.2044 C.ar    1  UNL1        0.0154
     15 C         143.5424  141.0906  164.6475 C.ar    1  UNL1        0.0013
     16 C         142.1615  141.5291  165.0356 C.ar    1  UNL1        0.0001
     17 C         141.1146  141.7316  163.9806 C.ar    1  UNL1        0.0013
     18 C         141.4487  141.4956  162.5375 C.ar    1  UNL1        0.0154
     19 C         141.8274  141.7650  166.4788 C.ar    1  UNL1        0.0000
     20 C         142.9087  142.1447  167.4466 C.ar    1  UNL1        0.0000
     21 C         142.5746  142.3806  168.8897 C.ar    1  UNL1        0.0011
     22 C         141.1591  142.2370  169.3651 C.ar    1  UNL1        0.0140
     23 C         140.0778  141.8574  168.3973 C.ar    1  UNL1        0.0011
     24 C         140.4119  141.6214  166.9541 C.ar    1  UNL1        0.0000
     25 C         140.8250  142.4730  170.8083 C.2     1  UNL1        0.0729
     26 O         141.8250  142.1364  171.8743 O.co2   1  UNL1       -0.5446
     27 O         139.4908  143.0455  171.1853 O.co2   1  UNL1       -0.5446
     28 C         144.4810  141.8040  157.1899 C.ar    1  UNL1        0.1583
     29 C         143.5704  142.5303  156.2448 C.ar    1  UNL1        0.1335
     30 N         144.1286  143.1698  155.0081 N.ar    1  UNL1       -0.2378
     31 C         145.5974  143.0831  154.7165 C.ar    1  UNL1        0.1196
     32 C         146.5081  142.3568  155.6616 C.ar    1  UNL1        0.1210
     33 N         145.9498  141.7173  156.8983 N.ar    1  UNL1       -0.2255
     34 C         143.3805  136.6873  155.2491 C.3     1  UNL1        0.1183
     35 C         140.7909  135.5682  154.2284 C.3     1  UNL1        0.0323
     36 C         141.7115  134.7071  155.0416 C.ar    1  UNL1       -0.0069
     37 C         141.3372  133.2865  155.3444 C.ar    1  UNL1       -0.0015
     38 C         142.2577  132.4254  156.1575 C.ar    1  UNL1        0.0203
     39 C         143.5525  132.9850  156.6679 C.ar    1  UNL1        0.0985
     40 N         143.9268  134.4057  156.3651 N.ar    1  UNL1       -0.2471
     41 C         143.0063  135.2667  155.5519 C.ar    1  UNL1        0.0712
@<TRIPOS>UNITY_ATOM_ATTR
26 1
charge -1
@<TRIPOS>BOND
     1    35    36    1
     2    36    37   ar
     3    37    38   ar
     4    38    39   ar
     5    39    40   ar
     6    40    41   ar
     7    41    34    1
     8    34     1    1
     9     1     2    1
    10     2     3    1
    11     3     4    1
    12     4     5    1
    13     5     6    1
    14     4     7    1
    15     7     8    2
    16     7     9   am
    17     9    13    1
    18    13    14   ar
    19    14    15   ar
    20    15    16   ar
    21    16    19    1
    22    19    20   ar
    23    20    21   ar
    24    21    22   ar
    25    22    25    1
    26    25    26   ar
    27    25    27   ar
    28    22    23   ar
    29    23    24   ar
    30    16    17   ar
    31    17    18   ar
    32     9    10   am
    33    10    11    2
    34    10    12   am
    35    12    28    1
    36    28    29   ar
    37    29    30   ar
    38    30    31   ar
    39    31    32   ar
    40    32    33   ar
    41    41    36   ar
    42     6     1    1
    43    18    13   ar
    44    33    28   ar
    45    12     4    1
    46    24    19   ar
@<TRIPOS>MOLECULE
*****
 41 46 0 0 0
SMALL
GASTEIGER

@<TRIPOS>ATOM
      1 N         144.7466  140.1913  156.1691 N.3     1  UNL1       -0.2676
      2 C         143.6905  139.1310  156.0675 C.3     1  UNL1        0.0746
      3 C         142.8208  138.8230  157.2502 C.3     1  UNL1        0.0449
      4 C         143.0071  139.5755  158.5343 C.3     1  UNL1        0.1391
      5 C         144.0631  140.6359  158.6359 C.3     1  UNL1        0.0449
      6 C         144.9329  140.9438  157.4533 C.3     1  UNL1        0.0746
      7 C         143.0761  140.2412  159.8768 C.2     1  UNL1        0.2529
      8 O         144.0270  141.3318  160.2722 O.2     1  UNL1       -0.2724
      9 N         142.0272  139.6249  160.7544 N.am    1  UNL1       -0.1907
     10 C         141.3099  138.5782  159.9543 C.2     1  UNL1        0.3220
     11 O         140.1847  137.7140  160.4408 O.2     1  UNL1       -0.2512
     12 N         141.9155  138.5477  158.5823 N.am    1  UNL1       -0.2212
     13 C         141.7451  139.9910  162.1814 C.ar    1  UNL1        0.0622
     14 C         142.6414  139.4908  163.2752 C.ar    1  UNL1        0.0154
     15 C         142.3593  139.8569  164.7022 C.ar    1  UNL1        0.0013
     16 C         141.1810  140.7231  165.0354 C.ar    1  UNL1        0.0001
     17 C         140.2847  141.2233  163.9416 C.ar    1  UNL1        0.0013
     18 C         140.5668  140.8572  162.5146 C.ar    1  UNL1        0.0154
     19 C         140.8990  141.0892  166.4624 C.ar    1  UNL1        0.0000
     20 C         140.4988  140.0278  167.4440 C.ar    1  UNL1        0.0000
     21 C         140.2168  140.3939  168.8710 C.ar    1  UNL1        0.0011
     22 C         140.3348  141.8214  169.3166 C.ar    1  UNL1        0.0140
     23 C         140.7350  142.8827  168.3350 C.ar    1  UNL1        0.0011
     24 C         141.0170  142.5166  166.9079 C.ar    1  UNL1        0.0000
     25 C         140.0528  142.1874  170.7436 C.2     1  UNL1        0.0729
     26 O         139.2288  143.4008  171.0578 O.co2   1  UNL1       -0.5446
     27 O         140.5947  141.3401  171.8564 O.co2   1  UNL1       -0.5446
     28 C         141.5021  137.6475  157.4559 C.ar    1  UNL1        0.1583
     29 C         140.3017  137.9896  156.6242 C.ar    1  UNL1        0.1335
     30 N         139.8884  137.0894  155.4978 N.ar    1  UNL1       -0.2378
     31 C         140.6755  135.8469  155.2032 C.ar    1  UNL1        0.1196
     32 C         141.8760  135.5047  156.0349 C.ar    1  UNL1        0.1210
     33 N         142.2893  136.4050  157.1613 N.ar    1  UNL1       -0.2255
     34 C         145.6164  140.4993  154.9864 C.3     1  UNL1        0.1183
     35 C         148.2500  141.8866  155.3605 C.3     1  UNL1        0.0323
     36 C         147.1049  142.6117  154.7179 C.ar    1  UNL1       -0.0069
     37 C         147.2765  144.0305  154.2623 C.ar    1  UNL1       -0.0015
     38 C         146.1315  144.7557  153.6197 C.ar    1  UNL1        0.0203
     39 C         144.8147  144.0621  153.4327 C.ar    1  UNL1        0.0985
     40 N         144.6430  142.6432  153.8883 N.ar    1  UNL1       -0.2471
     41 C         145.7881  141.9181  154.5309 C.ar    1  UNL1        0.0712
@<TRIPOS>UNITY_ATOM_ATTR
26 1
charge -1
@<TRIPOS>BOND
     1    35    36    1
     2    36    37   ar
     3    37    38   ar
     4    38    39   ar
     5    39    40   ar
     6    40    41   ar
     7    41    34    1
     8    34     1    1
     9     1     2    1
    10     2     3    1
    11     3     4    1
    12     4     5    1
    13     5     6    1
    14     4     7    1
    15     7     8    2
    16     7     9   am
    17     9    13    1
    18    13    14   ar
    19    14    15   ar
    20    15    16   ar
    21    16    19    1
    22    19    20   ar
    23    20    21   ar
    24    21    22   ar
    25    22    25    1
    26    25    26   ar
    27    25    27   ar
    28    22    23   ar
    29    23    24   ar
    30    16    17   ar
    31    17    18   ar
    32     9    10   am
    33    10    11    2
    34    10    12   am
    35    12    28    1
    36    28    29   ar
    37    29    30   ar
    38    30    31   ar
    39    31    32   ar
    40    32    33   ar
    41    41    36   ar
    42     6     1    1
    43    18    13   ar
    44    33    28   ar
    45    12     4    1
    46    24    19   ar
@<TRIPOS>MOLECULE
*****
 41 46 0 0 0
SMALL
GASTEIGER

@<TRIPOS>ATOM
      1 N         137.5980  140.1655  156.3223 N.3     1  UNL1       -0.2676
      2 C         138.9140  139.4755  156.1173 C.3     1  UNL1        0.0746
      3 C         139.9073  139.4065  157.2391 C.3     1  UNL1        0.0449
      4 C         139.5847  140.0274  158.5659 C.3     1  UNL1        0.1391
      5 C         138.2687  140.7174  158.7709 C.3     1  UNL1        0.0449
      6 C         137.2754  140.7864  157.6491 C.3     1  UNL1        0.0746
      7 C         139.4031  140.5991  159.9408 C.2     1  UNL1        0.2529
      8 O         138.1964  141.3402  160.4352 O.2     1  UNL1       -0.2724
      9 N         140.6403  140.2995  160.7345 N.am    1  UNL1       -0.1907
     10 C         141.5864  139.5426  159.8501 C.2     1  UNL1        0.3220
     11 O         142.9461  139.0419  160.2378 O.2     1  UNL1       -0.2512
     12 N         140.9340  139.3744  158.5099 N.am    1  UNL1       -0.2212
     13 C         140.8878  140.6885  162.1618 C.ar    1  UNL1        0.0622
     14 C         141.5335  142.0045  162.4793 C.ar    1  UNL1        0.0154
     15 C         141.7811  142.3935  163.9067 C.ar    1  UNL1        0.0013
     16 C         141.3829  141.4664  165.0166 C.ar    1  UNL1        0.0001
     17 C         140.7371  140.1503  164.6990 C.ar    1  UNL1        0.0013
     18 C         140.4896  139.7613  163.2717 C.ar    1  UNL1        0.0154
     19 C         141.6304  141.8554  166.4439 C.ar    1  UNL1        0.0000
     20 C         140.5095  142.4019  167.2776 C.ar    1  UNL1        0.0000
     21 C         140.7570  142.7908  168.7049 C.ar    1  UNL1        0.0011
     22 C         142.1255  142.6333  169.2987 C.ar    1  UNL1        0.0140
     23 C         143.2465  142.0869  168.4651 C.ar    1  UNL1        0.0011
     24 C         142.9989  141.6979  167.0377 C.ar    1  UNL1        0.0000
     25 C         142.3731  143.0223  170.7261 C.2     1  UNL1        0.0729
     26 O         143.4100  144.0557  171.0528 O.co2   1  UNL1       -0.5446
     27 O         141.5837  142.3779  171.8268 O.co2   1  UNL1       -0.5446
     28 C         141.5268  138.6760  157.3222 C.ar    1  UNL1        0.1583
     29 C         142.4094  139.4299  156.3721 C.ar    1  UNL1        0.1335
     30 N         143.0021  138.7314  155.1843 N.ar    1  UNL1       -0.2378
     31 C         142.7123  137.2789  154.9466 C.ar    1  UNL1        0.1196
     32 C         141.8297  136.5250  155.8967 C.ar    1  UNL1        0.1210
     33 N         141.2370  137.2236  157.0844 N.ar    1  UNL1       -0.2255
     34 C         136.6046  140.2346  155.2004 C.3     1  UNL1        0.1183
     35 C         134.8592  141.8850  153.4033 C.3     1  UNL1        0.0323
     36 C         134.2695  141.2043  154.6028 C.ar    1  UNL1       -0.0069
     37 C         132.8072  141.3488  154.9038 C.ar    1  UNL1       -0.0015
     38 C         132.2175  140.6681  156.1033 C.ar    1  UNL1        0.0203
     39 C         133.0902  139.8429  157.0019 C.ar    1  UNL1        0.0985
     40 N         134.5526  139.6984  156.7010 N.ar    1  UNL1       -0.2471
     41 C         135.1423  140.3791  155.5014 C.ar    1  UNL1        0.0712
@<TRIPOS>UNITY_ATOM_ATTR
26 1
charge -1
@<TRIPOS>BOND
     1    35    36    1
     2    36    37   ar
     3    37    38   ar
     4    38    39   ar
     5    39    40   ar
     6    40    41   ar
     7    41    34    1
     8    34     1    1
     9     1     2    1
    10     2     3    1
    11     3     4    1
    12     4     5    1
    13     5     6    1
    14     4     7    1
    15     7     8    2
    16     7     9   am
    17     9    13    1
    18    13    14   ar
    19    14    15   ar
    20    15    16   ar
    21    16    19    1
    22    19    20   ar
    23    20    21   ar
    24    21    22   ar
    25    22    25    1
    26    25    26   ar
    27    25    27   ar
    28    22    23   ar
    29    23    24   ar
    30    16    17   ar
    31    17    18   ar
    32     9    10   am
    33    10    11    2
    34    10    12   am
    35    12    28    1
    36    28    29   ar
    37    29    30   ar
    38    30    31   ar
    39    31    32   ar
    40    32    33   ar
    41    41    36   ar
    42     6     1    1
    43    18    13   ar
    44    33    28   ar
    45    12     4    1
    46    24    19   ar
@<TRIPOS>MOLECULE
*****
 41 46 0 0 0
SMALL
GASTEIGER

@<TRIPOS>ATOM
      1 N         138.9907  139.1525  156.0480 N.3     1  UNL1       -0.2676
      2 C         140.3287  138.4756  156.0116 C.3     1  UNL1        0.0746
      3 C         141.2038  138.4779  157.2299 C.3     1  UNL1        0.0449
      4 C         140.7407  139.1571  158.4846 C.3     1  UNL1        0.1391
      5 C         139.4026  139.8340  158.5210 C.3     1  UNL1        0.0449
      6 C         138.5276  139.8317  157.3027 C.3     1  UNL1        0.0746
      7 C         140.4138  139.7919  159.8038 C.2     1  UNL1        0.2529
      8 O         139.1544  140.5358  160.1363 O.2     1  UNL1       -0.2724
      9 N         141.5674  139.5521  160.7322 N.am    1  UNL1       -0.1907
     10 C         142.6073  138.7691  159.9868 C.2     1  UNL1        0.3220
     11 O         143.9264  138.3108  160.5342 O.2     1  UNL1       -0.2512
     12 N         142.0964  138.5250  158.5977 N.am    1  UNL1       -0.2212
     13 C         141.6641  140.0141  162.1560 C.ar    1  UNL1        0.0622
     14 C         141.3731  139.0595  163.2757 C.ar    1  UNL1        0.0154
     15 C         141.4698  139.5215  164.6994 C.ar    1  UNL1        0.0013
     16 C         141.8574  140.9382  165.0035 C.ar    1  UNL1        0.0001
     17 C         142.1484  141.8930  163.8838 C.ar    1  UNL1        0.0013
     18 C         142.0517  141.4309  162.4600 C.ar    1  UNL1        0.0154
     19 C         141.9541  141.4003  166.4273 C.ar    1  UNL1        0.0000
     20 C         143.2342  141.9919  166.9385 C.ar    1  UNL1        0.0000
     21 C         143.3309  142.4540  168.3623 C.ar    1  UNL1        0.0011
     22 C         142.1475  142.3244  169.2749 C.ar    1  UNL1        0.0140
     23 C         140.8674  141.7327  168.7637 C.ar    1  UNL1        0.0011
     24 C         140.7707  141.2707  167.3398 C.ar    1  UNL1        0.0000
     25 C         142.2442  142.7864  170.6987 C.2     1  UNL1        0.0729
     26 O         141.3627  142.1750  171.7471 O.co2   1  UNL1       -0.5446
     27 O         143.2223  143.8600  171.0740 O.co2   1  UNL1       -0.5446
     28 C         142.8149  137.7797  157.5123 C.ar    1  UNL1        0.1583
     29 C         142.6974  136.2870  157.4229 C.ar    1  UNL1        0.1335
     30 N         143.4159  135.5418  156.3375 N.ar    1  UNL1       -0.2378
     31 C         144.2521  136.2892  155.3413 C.ar    1  UNL1        0.1196
     32 C         144.3696  137.7819  155.4307 C.ar    1  UNL1        0.1210
     33 N         143.6511  138.5271  156.5162 N.ar    1  UNL1       -0.2255
     34 C         138.1156  139.1502  154.8297 C.3     1  UNL1        0.1183
     35 C         137.8455  142.0485  154.1035 C.3     1  UNL1        0.0323
     36 C         136.6349  141.2608  154.5085 C.ar    1  UNL1       -0.0069
     37 C         135.2893  141.9222  154.5503 C.ar    1  UNL1       -0.0015
     38 C         134.0787  141.1345  154.9553 C.ar    1  UNL1        0.0203
     39 C         134.2137  139.6854  155.3183 C.ar    1  UNL1        0.0985
     40 N         135.5594  139.0239  155.2765 N.ar    1  UNL1       -0.2471
     41 C         136.7700  139.8116  154.8715 C.ar    1  UNL1        0.0712
@<TRIPOS>UNITY_ATOM_ATTR
26 1
charge -1
@<TRIPOS>BOND
     1    35    36    1
     2    36    37   ar
     3    37    38   ar
     4    38    39   ar
     5    39    40   ar
     6    40    41   ar
     7    41    34    1
     8    34     1    1
     9     1     2    1
    10     2     3    1
    11     3     4    1
    12     4     5    1
    13     5     6    1
    14     4     7    1
    15     7     8    2
    16     7     9   am
    17     9    13    1
    18    13    14   ar
    19    14    15   ar
    20    15    16   ar
    21    16    19    1
    22    19    20   ar
    23    20    21   ar
    24    21    22   ar
    25    22    25    1
    26    25    26   ar
    27    25    27   ar
    28    22    23   ar
    29    23    24   ar
    30    16    17   ar
    31    17    18   ar
    32     9    10   am
    33    10    11    2
    34    10    12   am
    35    12    28    1
    36    28    29   ar
    37    29    30   ar
    38    30    31   ar
    39    31    32   ar
    40    32    33   ar
    41    41    36   ar
    42     6     1    1
    43    18    13   ar
    44    33    28   ar
    45    12     4    1
    46    24    19   ar
@<TRIPOS>MOLECULE
*****
 41 46 0 0 0
SMALL
GASTEIGER

@<TRIPOS>ATOM
      1 N         143.5972  142.1681  155.9887 N.3     1  UNL1       -0.2676
      2 C         142.4869  143.1739  155.9159 C.3     1  UNL1        0.0746
      3 C         141.6978  143.5103  157.1464 C.3     1  UNL1        0.0449
      4 C         142.0191  142.8410  158.4497 C.3     1  UNL1        0.1391
      5 C         143.1295  141.8351  158.5225 C.3     1  UNL1        0.0449
      6 C         143.9186  141.4987  157.2921 C.3     1  UNL1        0.0746
      7 C         142.2241  142.2562  159.8158 C.2     1  UNL1        0.2529
      8 O         143.2540  141.2324  160.1912 O.2     1  UNL1       -0.2724
      9 N         141.2181  142.8751  160.7406 N.am    1  UNL1       -0.1907
     10 C         140.3915  143.8423  159.9460 C.2     1  UNL1        0.3220
     11 O         139.2673  144.6830  160.4745 O.2     1  UNL1       -0.2512
     12 N         140.8865  143.8212  158.5303 N.am    1  UNL1       -0.2212
     13 C         141.0656  142.5788  162.2031 C.ar    1  UNL1        0.0622
     14 C         141.3468  143.6468  163.2180 C.ar    1  UNL1        0.0154
     15 C         141.1943  143.3505  164.6805 C.ar    1  UNL1        0.0013
     16 C         140.7606  141.9862  165.1281 C.ar    1  UNL1        0.0001
     17 C         140.4794  140.9181  164.1131 C.ar    1  UNL1        0.0013
     18 C         140.6319  141.2144  162.6506 C.ar    1  UNL1        0.0154
     19 C         140.6081  141.6899  166.5906 C.ar    1  UNL1        0.0000
     20 C         140.1992  140.3182  167.0393 C.ar    1  UNL1        0.0000
     21 C         140.0467  140.0219  168.5018 C.ar    1  UNL1        0.0011
     22 C         140.3030  141.0973  169.5157 C.ar    1  UNL1        0.0140
     23 C         140.7119  142.4690  169.0670 C.ar    1  UNL1        0.0011
     24 C         140.8644  142.7653  167.6044 C.ar    1  UNL1        0.0000
     25 C         140.1505  140.8010  170.9782 C.2     1  UNL1        0.0729
     26 O         140.5727  141.8174  171.9973 O.co2   1  UNL1       -0.5446
     27 O         139.5759  139.4882  171.4215 O.co2   1  UNL1       -0.5446
     28 C         140.3443  144.6371  157.3944 C.ar    1  UNL1        0.1583
     29 C         140.9143  145.9944  157.1067 C.ar    1  UNL1        0.1335
     30 N         140.3720  146.8102  155.9707 N.ar    1  UNL1       -0.2378
     31 C         139.2596  146.2687  155.1224 C.ar    1  UNL1        0.1196
     32 C         138.6896  144.9114  155.4101 C.ar    1  UNL1        0.1210
     33 N         139.2319  144.0956  156.5460 N.ar    1  UNL1       -0.2255
     34 C         144.3864  141.8316  154.7582 C.3     1  UNL1        0.1183
     35 C         147.2812  141.7725  155.5433 C.3     1  UNL1        0.0323
     36 C         146.7880  142.8055  154.5739 C.ar    1  UNL1       -0.0069
     37 C         147.7421  143.8090  153.9972 C.ar    1  UNL1       -0.0015
     38 C         147.2488  144.8420  153.0278 C.ar    1  UNL1        0.0203
     39 C         145.8014  144.8715  152.6353 C.ar    1  UNL1        0.0985
     40 N         144.8472  143.8680  153.2121 N.ar    1  UNL1       -0.2471
     41 C         145.3405  142.8351  154.1814 C.ar    1  UNL1        0.0712
@<TRIPOS>UNITY_ATOM_ATTR
26 1
charge -1
@<TRIPOS>BOND
     1    35    36    1
     2    36    37   ar
     3    37    38   ar
     4    38    39   ar
     5    39    40   ar
     6    40    41   ar
     7    41    34    1
     8    34     1    1
     9     1     2    1
    10     2     3    1
    11     3     4    1
    12     4     5    1
    13     5     6    1
    14     4     7    1
    15     7     8    2
    16     7     9   am
    17     9    13    1
    18    13    14   ar
    19    14    15   ar
    20    15    16   ar
    21    16    19    1
    22    19    20   ar
    23    20    21   ar
    24    21    22   ar
    25    22    25    1
    26    25    26   ar
    27    25    27   ar
    28    22    23   ar
    29    23    24   ar
    30    16    17   ar
    31    17    18   ar
    32     9    10   am
    33    10    11    2
    34    10    12   am
    35    12    28    1
    36    28    29   ar
    37    29    30   ar
    38    30    31   ar
    39    31    32   ar
    40    32    33   ar
    41    41    36   ar
    42     6     1    1
    43    18    13   ar
    44    33    28   ar
    45    12     4    1
    46    24    19   ar
@<TRIPOS>MOLECULE
*****
 41 46 0 0 0
SMALL
GASTEIGER

@<TRIPOS>ATOM
      1 N         138.8654  139.4305  155.5935 N.3     1  UNL1       -0.2676
      2 C         140.1893  138.7352  155.7106 C.3     1  UNL1        0.0746
      3 C         140.8778  138.6524  157.0406 C.3     1  UNL1        0.0449
      4 C         140.2424  139.2648  158.2535 C.3     1  UNL1        0.1391
      5 C         138.9185  139.9601  158.1364 C.3     1  UNL1        0.0449
      6 C         138.2300  140.0429  156.8064 C.3     1  UNL1        0.0746
      7 C         139.7319  139.8269  159.5472 C.2     1  UNL1        0.2529
      8 O         138.4433  140.5706  159.7379 O.2     1  UNL1       -0.2724
      9 N         140.7364  139.5148  160.6167 N.am    1  UNL1       -0.1907
     10 C         141.8676  138.7598  159.9840 C.2     1  UNL1        0.3220
     11 O         143.0895  138.2490  160.6881 O.2     1  UNL1       -0.2512
     12 N         141.5624  138.6053  158.5236 N.am    1  UNL1       -0.2212
     13 C         140.6285  139.8915  162.0646 C.ar    1  UNL1        0.0622
     14 C         141.5986  140.8685  162.6596 C.ar    1  UNL1        0.0154
     15 C         141.4908  141.2453  164.1075 C.ar    1  UNL1        0.0013
     16 C         140.4127  140.6450  164.9603 C.ar    1  UNL1        0.0001
     17 C         139.4425  139.6680  164.3653 C.ar    1  UNL1        0.0013
     18 C         139.5504  139.2912  162.9174 C.ar    1  UNL1        0.0154
     19 C         140.3048  141.0218  166.4082 C.ar    1  UNL1        0.0000
     20 C         139.7828  140.0294  167.4046 C.ar    1  UNL1        0.0000
     21 C         139.6749  140.4062  168.8524 C.ar    1  UNL1        0.0011
     22 C         140.0891  141.7754  169.3041 C.ar    1  UNL1        0.0140
     23 C         140.6111  142.7678  168.3077 C.ar    1  UNL1        0.0011
     24 C         140.7190  142.3909  166.8598 C.ar    1  UNL1        0.0000
     25 C         139.9812  142.1521  170.7520 C.2     1  UNL1        0.0729
     26 O         139.2176  143.3795  171.1526 O.co2   1  UNL1       -0.5446
     27 O         140.6369  141.3015  171.7991 O.co2   1  UNL1       -0.5446
     28 C         142.4254  137.9128  157.5108 C.ar    1  UNL1        0.1583
     29 C         143.4493  138.6920  156.7397 C.ar    1  UNL1        0.1335
     30 N         144.3123  137.9994  155.7270 N.ar    1  UNL1       -0.2378
     31 C         144.1515  136.5277  155.4853 C.ar    1  UNL1        0.1196
     32 C         143.1276  135.7486  156.2565 C.ar    1  UNL1        0.1210
     33 N         142.2646  136.4411  157.2692 N.ar    1  UNL1       -0.2255
     34 C         138.1768  139.5133  154.2634 C.3     1  UNL1        0.1183
     35 C         135.1973  139.8635  154.2664 C.3     1  UNL1        0.0323
     36 C         136.0838  140.9850  153.8121 C.ar    1  UNL1       -0.0069
     37 C         135.4806  142.2816  153.3593 C.ar    1  UNL1       -0.0015
     38 C         136.3671  143.4031  152.9050 C.ar    1  UNL1        0.0203
     39 C         137.8568  143.2280  152.9035 C.ar    1  UNL1        0.0985
     40 N         138.4601  141.9314  153.3563 N.ar    1  UNL1       -0.2471
     41 C         137.5736  140.8099  153.8106 C.ar    1  UNL1        0.0712
@<TRIPOS>UNITY_ATOM_ATTR
26 1
charge -1
@<TRIPOS>BOND
     1    35    36    1
     2    36    37   ar
     3    37    38   ar
     4    38    39   ar
     5    39    40   ar
     6    40    41   ar
     7    41    34    1
     8    34     1    1
     9     1     2    1
    10     2     3    1
    11     3     4    1
    12     4     5    1
    13     5     6    1
    14     4     7    1
    15     7     8    2
    16     7     9   am
    17     9    13    1
    18    13    14   ar
    19    14    15   ar
    20    15    16   ar
    21    16    19    1
    22    19    20   ar
    23    20    21   ar
    24    21    22   ar
    25    22    25    1
    26    25    26   ar
    27    25    27   ar
    28    22    23   ar
    29    23    24   ar
    30    16    17   ar
    31    17    18   ar
    32     9    10   am
    33    10    11    2
    34    10    12   am
    35    12    28    1
    36    28    29   ar
    37    29    30   ar
    38    30    31   ar
    39    31    32   ar
    40    32    33   ar
    41    41    36   ar
    42     6     1    1
    43    18    13   ar
    44    33    28   ar
    45    12     4    1
    46    24    19   ar
