@<TRIPOS>MOLECULE
*****
 34 39 0 0 0
SMALL
GASTEIGER

@<TRIPOS>ATOM
      1 C         141.3603  144.4439  162.7583 C.ar    1  UNL1        0.1669
      2 N         140.2136  145.4046  162.8692 N.ar    1  UNL1       -0.1282
      3 N         139.7585  145.7455  161.4811 N.ar    1  UNL1       -0.1221
      4 C         140.6240  144.9956  160.5123 C.ar    1  UNL1        0.1932
      5 N         141.6140  144.1912  161.3016 N.ar    1  UNL1       -0.2884
      6 C         142.6719  143.2919  160.7340 C.3     1  UNL1        0.1340
      7 C         139.4191  139.9391  167.5737 C.3     1  UNL1        0.0521
      8 C         140.0943  140.9148  166.6560 C.ar    1  UNL1        0.0593
      9 C         139.3347  141.5169  165.5113 C.ar    1  UNL1        0.0147
     10 C         140.0099  142.4926  164.5936 C.ar    1  UNL1        0.0028
     11 C         141.4447  142.8662  164.8206 C.ar    1  UNL1        0.0206
     12 C         142.1200  143.8419  163.9030 C.ar    1  UNL1        0.0374
     13 C         143.5548  144.2155  164.1300 C.ar    1  UNL1        0.0031
     14 C         144.3145  143.6134  165.2748 C.ar    1  UNL1        0.0016
     15 C         143.6393  142.6377  166.1924 C.ar    1  UNL1        0.0191
     16 C         142.2044  142.2641  165.9654 C.ar    1  UNL1        0.0810
     17 N         141.5292  141.2884  166.8830 N.ar    1  UNL1       -0.2497
     18 S         140.5182  145.0419  159.0167 S.3     1  UNL1       -0.0756
     19 C         139.7011  144.0148  158.2905 C.3     1  UNL1        0.0666
     20 C         139.6702  142.5975  158.7808 C.3     1  UNL1        0.0294
     21 C         138.4453  142.0671  159.4651 C.3     1  UNL1        0.0730
     22 N         138.5631  140.9358  160.4431 N.3     1  UNL1       -0.2724
     23 C         137.5041  139.9171  160.7443 C.3     1  UNL1        0.0724
     24 C         138.0470  138.9763  161.7789 C.3     1  UNL1        0.0214
     25 C         138.8462  138.2153  162.7948 C.3     1  UNL1        0.0072
     26 C         139.4414  139.4137  162.1169 C.3     1  UNL1        0.0350
     27 C         139.7604  140.6247  161.2914 C.3     1  UNL1        0.0761
     28 C         140.7632  139.3531  162.8235 C.ar    1  UNL1       -0.0214
     29 C         141.9152  140.1781  162.3315 C.ar    1  UNL1       -0.0037
     30 C         143.2369  140.1175  163.0381 C.ar    1  UNL1        0.0064
     31 C         143.4067  139.2318  164.2368 C.ar    1  UNL1        0.0345
     32 BR        144.7285  139.1713  164.9434 Br      1  UNL1       -0.0490
     33 C         142.2547  138.4068  164.7288 C.ar    1  UNL1        0.0064
     34 C         140.9329  138.4674  164.0222 C.ar    1  UNL1       -0.0037
@<TRIPOS>BOND
     1     7     8    1
     2     8     9   ar
     3     9    10   ar
     4    10    11   ar
     5    11    12   ar
     6    12     1    1
     7     1     2   ar
     8     2     3   ar
     9     3     4   ar
    10     4    18    1
    11    18    19    1
    12    19    20    1
    13    20    21    1
    14    21    22    1
    15    22    23    1
    16    23    24    1
    17    24    25    1
    18    25    26    1
    19    26    28    1
    20    28    29   ar
    21    29    30   ar
    22    30    31   ar
    23    31    32    1
    24    31    33   ar
    25    33    34   ar
    26    26    27    1
    27     4     5   ar
    28     5     6    1
    29    12    13   ar
    30    13    14   ar
    31    14    15   ar
    32    15    16   ar
    33    16    17   ar
    34    17     8   ar
    35    16    11   ar
    36     5     1   ar
    37    27    22    1
    38    26    24    1
    39    34    28   ar
@<TRIPOS>MOLECULE
*****
 34 39 0 0 0
SMALL
GASTEIGER

@<TRIPOS>ATOM
      1 C         139.8616  140.9028  160.7587 C.ar    1  UNL1        0.1669
      2 N         138.4694  141.1183  160.2433 N.ar    1  UNL1       -0.1282
      3 N         138.4567  142.4001  159.4644 N.ar    1  UNL1       -0.1221
      4 C         139.8410  142.9770  159.4984 C.ar    1  UNL1        0.1932
      5 N         140.7093  142.0515  160.2984 N.ar    1  UNL1       -0.2884
      6 C         142.1688  142.2416  160.5873 C.3     1  UNL1        0.1340
      7 C         137.8612  138.7266  166.9646 C.3     1  UNL1        0.0521
      8 C         138.4771  138.9806  165.6206 C.ar    1  UNL1        0.0593
      9 C         138.0140  140.1410  164.7906 C.ar    1  UNL1        0.0147
     10 C         138.6299  140.3949  163.4466 C.ar    1  UNL1        0.0028
     11 C         139.7088  139.4885  162.9327 C.ar    1  UNL1        0.0206
     12 C         140.3247  139.7424  161.5888 C.ar    1  UNL1        0.0374
     13 C         141.4037  138.8360  161.0749 C.ar    1  UNL1        0.0031
     14 C         141.8668  137.6755  161.9049 C.ar    1  UNL1        0.0016
     15 C         141.2510  137.4216  163.2489 C.ar    1  UNL1        0.0191
     16 C         140.1719  138.3281  163.7628 C.ar    1  UNL1        0.0810
     17 N         139.5561  138.0741  165.1067 N.ar    1  UNL1       -0.2497
     18 S         140.2800  144.2548  158.8469 S.3     1  UNL1       -0.0756
     19 C         140.4461  145.4977  159.6700 C.3     1  UNL1        0.0666
     20 C         140.0235  145.5062  161.1091 C.3     1  UNL1        0.0294
     21 C         141.0392  145.2849  162.1904 C.3     1  UNL1        0.0730
     22 N         140.6519  144.5629  163.4470 N.3     1  UNL1       -0.2724
     23 C         139.5503  144.9563  164.3859 C.3     1  UNL1        0.0724
     24 C         139.5158  143.9573  165.5043 C.3     1  UNL1        0.0214
     25 C         139.7205  142.8267  166.4686 C.3     1  UNL1        0.0072
     26 C         140.5960  142.9466  165.2566 C.3     1  UNL1        0.0350
     27 C         141.2982  143.3208  163.9850 C.3     1  UNL1        0.0761
     28 C         141.4254  141.7296  165.5413 C.ar    1  UNL1       -0.0214
     29 C         141.2252  140.9673  166.8175 C.ar    1  UNL1       -0.0037
     30 C         142.0546  139.7503  167.1022 C.ar    1  UNL1        0.0064
     31 C         143.0841  139.2955  166.1106 C.ar    1  UNL1        0.0345
     32 BR        143.9134  138.0785  166.3953 Br      1  UNL1       -0.0490
     33 C         143.2842  140.0578  164.8344 C.ar    1  UNL1        0.0064
     34 C         142.4549  141.2748  164.5497 C.ar    1  UNL1       -0.0037
@<TRIPOS>BOND
     1     7     8    1
     2     8     9   ar
     3     9    10   ar
     4    10    11   ar
     5    11    12   ar
     6    12     1    1
     7     1     2   ar
     8     2     3   ar
     9     3     4   ar
    10     4    18    1
    11    18    19    1
    12    19    20    1
    13    20    21    1
    14    21    22    1
    15    22    23    1
    16    23    24    1
    17    24    25    1
    18    25    26    1
    19    26    28    1
    20    28    29   ar
    21    29    30   ar
    22    30    31   ar
    23    31    32    1
    24    31    33   ar
    25    33    34   ar
    26    26    27    1
    27     4     5   ar
    28     5     6    1
    29    12    13   ar
    30    13    14   ar
    31    14    15   ar
    32    15    16   ar
    33    16    17   ar
    34    17     8   ar
    35    16    11   ar
    36     5     1   ar
    37    27    22    1
    38    26    24    1
    39    34    28   ar
@<TRIPOS>MOLECULE
*****
 34 39 0 0 0
SMALL
GASTEIGER

@<TRIPOS>ATOM
      1 C         142.2007  142.7633  161.0792 C.ar    1  UNL1        0.1669
      2 N         142.9572  142.3108  159.8655 N.ar    1  UNL1       -0.1282
      3 N         141.9874  142.2099  158.7256 N.ar    1  UNL1       -0.1221
      4 C         140.6314  142.6000  159.2347 C.ar    1  UNL1        0.1932
      5 N         140.7632  142.9421  160.6894 N.ar    1  UNL1       -0.2884
      6 C         139.6526  143.3850  161.5950 C.3     1  UNL1        0.1340
      7 C         143.4133  138.4076  166.2567 C.3     1  UNL1        0.0521
      8 C         143.2549  139.5547  165.3033 C.ar    1  UNL1        0.0593
      9 C         142.6758  139.3219  163.9394 C.ar    1  UNL1        0.0147
     10 C         142.5174  140.4690  162.9860 C.ar    1  UNL1        0.0028
     11 C         142.9382  141.8490  163.3965 C.ar    1  UNL1        0.0206
     12 C         142.7798  142.9961  162.4431 C.ar    1  UNL1        0.0374
     13 C         143.2006  144.3761  162.8536 C.ar    1  UNL1        0.0031
     14 C         143.7798  144.6090  164.2176 C.ar    1  UNL1        0.0016
     15 C         143.9381  143.4619  165.1710 C.ar    1  UNL1        0.0191
     16 C         143.5173  142.0818  164.7604 C.ar    1  UNL1        0.0810
     17 N         143.6757  140.9347  165.7138 N.ar    1  UNL1       -0.2497
     18 S         139.3659  142.6410  158.4305 S.3     1  UNL1       -0.0756
     19 C         138.3250  141.5769  158.6155 C.3     1  UNL1        0.0666
     20 C         138.5745  140.4402  159.5619 C.3     1  UNL1        0.0294
     21 C         137.6667  140.2300  160.7374 C.3     1  UNL1        0.0730
     22 N         138.1739  139.5239  161.9599 N.3     1  UNL1       -0.2724
     23 C         138.2867  138.0387  162.1370 C.3     1  UNL1        0.0724
     24 C         138.8398  137.7760  163.5064 C.3     1  UNL1        0.0214
     25 C         139.3934  137.8260  164.8996 C.3     1  UNL1        0.0072
     26 C         139.0686  139.0988  164.1755 C.3     1  UNL1        0.0350
     27 C         138.6571  140.1791  163.2197 C.3     1  UNL1        0.0761
     28 C         139.4840  140.0201  165.2840 C.ar    1  UNL1       -0.0214
     29 C         139.6478  141.4872  165.0182 C.ar    1  UNL1       -0.0037
     30 C         140.0632  142.4085  166.1266 C.ar    1  UNL1        0.0064
     31 C         140.3147  141.8627  167.5010 C.ar    1  UNL1        0.0345
     32 BR        140.7300  142.7840  168.6094 Br      1  UNL1       -0.0490
     33 C         140.1509  140.3956  167.7668 C.ar    1  UNL1        0.0064
     34 C         139.7355  139.4743  166.6583 C.ar    1  UNL1       -0.0037
@<TRIPOS>BOND
     1     7     8    1
     2     8     9   ar
     3     9    10   ar
     4    10    11   ar
     5    11    12   ar
     6    12     1    1
     7     1     2   ar
     8     2     3   ar
     9     3     4   ar
    10     4    18    1
    11    18    19    1
    12    19    20    1
    13    20    21    1
    14    21    22    1
    15    22    23    1
    16    23    24    1
    17    24    25    1
    18    25    26    1
    19    26    28    1
    20    28    29   ar
    21    29    30   ar
    22    30    31   ar
    23    31    32    1
    24    31    33   ar
    25    33    34   ar
    26    26    27    1
    27     4     5   ar
    28     5     6    1
    29    12    13   ar
    30    13    14   ar
    31    14    15   ar
    32    15    16   ar
    33    16    17   ar
    34    17     8   ar
    35    16    11   ar
    36     5     1   ar
    37    27    22    1
    38    26    24    1
    39    34    28   ar
@<TRIPOS>MOLECULE
*****
 34 39 0 0 0
SMALL
GASTEIGER

@<TRIPOS>ATOM
      1 C         143.7646  141.5186  163.6066 C.ar    1  UNL1        0.1669
      2 N         144.1762  142.9584  163.6943 N.ar    1  UNL1       -0.1282
      3 N         144.2940  143.4928  162.2977 N.ar    1  UNL1       -0.1221
      4 C         143.9552  142.3833  161.3467 C.ar    1  UNL1        0.1932
      5 N         143.6280  141.1632  162.1557 N.ar    1  UNL1       -0.2884
      6 C         143.2335  139.8230  161.6096 C.3     1  UNL1        0.1340
      7 C         139.9766  142.3041  169.2885 C.3     1  UNL1        0.0521
      8 C         140.8651  141.8771  168.1579 C.ar    1  UNL1        0.0593
      9 C         141.0991  142.7995  166.9984 C.ar    1  UNL1        0.0147
     10 C         141.9876  142.3725  165.8678 C.ar    1  UNL1        0.0028
     11 C         142.6421  141.0232  165.8967 C.ar    1  UNL1        0.0206
     12 C         143.5306  140.5962  164.7661 C.ar    1  UNL1        0.0374
     13 C         144.1852  139.2469  164.7950 C.ar    1  UNL1        0.0031
     14 C         143.9512  138.3245  165.9545 C.ar    1  UNL1        0.0016
     15 C         143.0627  138.7515  167.0851 C.ar    1  UNL1        0.0191
     16 C         142.4082  140.1009  167.0562 C.ar    1  UNL1        0.0810
     17 N         141.5197  140.5278  168.1868 N.ar    1  UNL1       -0.2497
     18 S         143.9454  142.4774  159.8497 S.3     1  UNL1       -0.0756
     19 C         143.0690  143.4856  159.1674 C.3     1  UNL1        0.0666
     20 C         141.6243  143.6061  159.5523 C.3     1  UNL1        0.0294
     21 C         141.1736  144.7360  160.4298 C.3     1  UNL1        0.0730
     22 N         140.3190  144.4580  161.6309 N.3     1  UNL1       -0.2724
     23 C         139.5125  145.4681  162.3919 C.3     1  UNL1        0.0724
     24 C         138.8159  144.7555  163.5131 C.3     1  UNL1        0.0214
     25 C         138.2639  143.7896  164.5191 C.3     1  UNL1        0.0072
     26 C         139.1920  143.3051  163.4450 C.3     1  UNL1        0.0350
     27 C         140.1209  143.1212  162.2817 C.3     1  UNL1        0.0761
     28 C         139.1879  141.8669  163.8712 C.ar    1  UNL1       -0.0214
     29 C         138.3187  141.4248  165.0109 C.ar    1  UNL1       -0.0037
     30 C         138.3146  139.9867  165.4372 C.ar    1  UNL1        0.0064
     31 C         139.1799  138.9905  164.7237 C.ar    1  UNL1        0.0345
     32 BR        139.1758  137.5524  165.1499 Br      1  UNL1       -0.0490
     33 C         140.0491  139.4326  163.5840 C.ar    1  UNL1        0.0064
     34 C         140.0532  140.8707  163.1578 C.ar    1  UNL1       -0.0037
@<TRIPOS>BOND
     1     7     8    1
     2     8     9   ar
     3     9    10   ar
     4    10    11   ar
     5    11    12   ar
     6    12     1    1
     7     1     2   ar
     8     2     3   ar
     9     3     4   ar
    10     4    18    1
    11    18    19    1
    12    19    20    1
    13    20    21    1
    14    21    22    1
    15    22    23    1
    16    23    24    1
    17    24    25    1
    18    25    26    1
    19    26    28    1
    20    28    29   ar
    21    29    30   ar
    22    30    31   ar
    23    31    32    1
    24    31    33   ar
    25    33    34   ar
    26    26    27    1
    27     4     5   ar
    28     5     6    1
    29    12    13   ar
    30    13    14   ar
    31    14    15   ar
    32    15    16   ar
    33    16    17   ar
    34    17     8   ar
    35    16    11   ar
    36     5     1   ar
    37    27    22    1
    38    26    24    1
    39    34    28   ar
@<TRIPOS>MOLECULE
*****
 34 39 0 0 0
SMALL
GASTEIGER

@<TRIPOS>ATOM
      1 C         139.5063  138.8030  160.8666 C.ar    1  UNL1        0.1669
      2 N         138.5611  139.0426  159.7268 N.ar    1  UNL1       -0.1282
      3 N         139.3139  138.8282  158.4472 N.ar    1  UNL1       -0.1221
      4 C         140.7246  138.4560  158.7962 C.ar    1  UNL1        0.1932
      5 N         140.8434  138.4405  160.2915 N.ar    1  UNL1       -0.2884
      6 C         142.0820  138.1189  161.0742 C.3     1  UNL1        0.1340
      7 C         137.8701  144.2482  164.7296 C.3     1  UNL1        0.0521
      8 C         138.1958  142.9130  164.1285 C.ar    1  UNL1        0.0593
      9 C         138.5291  142.8085  162.6698 C.ar    1  UNL1        0.0147
     10 C         138.8549  141.4733  162.0688 C.ar    1  UNL1        0.0028
     11 C         138.8473  140.2427  162.9264 C.ar    1  UNL1        0.0206
     12 C         139.1730  138.9076  162.3253 C.ar    1  UNL1        0.0374
     13 C         139.1654  137.6770  163.1830 C.ar    1  UNL1        0.0031
     14 C         138.8320  137.7816  164.6418 C.ar    1  UNL1        0.0016
     15 C         138.5063  139.1167  165.2428 C.ar    1  UNL1        0.0191
     16 C         138.5139  140.3473  164.3851 C.ar    1  UNL1        0.0810
     17 N         138.1882  141.6825  164.9862 N.ar    1  UNL1       -0.2497
     18 S         141.8233  138.1527  157.8212 S.3     1  UNL1       -0.0756
     19 C         142.9160  139.1534  157.5874 C.3     1  UNL1        0.0666
     20 C         142.7915  140.5425  158.1396 C.3     1  UNL1        0.0294
     21 C         143.6911  140.9903  159.2532 C.3     1  UNL1        0.0730
     22 N         143.1682  141.9112  160.3156 N.3     1  UNL1       -0.2724
     23 C         142.8706  143.3717  160.1479 C.3     1  UNL1        0.0724
     24 C         142.3696  143.8964  161.4609 C.3     1  UNL1        0.0214
     25 C         141.9107  144.1257  162.8704 C.3     1  UNL1        0.0072
     26 C         142.3575  142.7600  162.4399 C.3     1  UNL1        0.0350
     27 C         142.8511  141.5331  161.7321 C.3     1  UNL1        0.0761
     28 C         142.1339  142.0964  163.7664 C.ar    1  UNL1       -0.0214
     29 C         142.3278  140.6157  163.9065 C.ar    1  UNL1       -0.0037
     30 C         142.1042  139.9521  165.2330 C.ar    1  UNL1        0.0064
     31 C         141.6865  140.7693  166.4195 C.ar    1  UNL1        0.0345
     32 BR        141.4628  140.1057  167.7460 Br      1  UNL1       -0.0490
     33 C         141.4925  142.2501  166.2794 C.ar    1  UNL1        0.0064
     34 C         141.7162  142.9136  164.9529 C.ar    1  UNL1       -0.0037
@<TRIPOS>BOND
     1     7     8    1
     2     8     9   ar
     3     9    10   ar
     4    10    11   ar
     5    11    12   ar
     6    12     1    1
     7     1     2   ar
     8     2     3   ar
     9     3     4   ar
    10     4    18    1
    11    18    19    1
    12    19    20    1
    13    20    21    1
    14    21    22    1
    15    22    23    1
    16    23    24    1
    17    24    25    1
    18    25    26    1
    19    26    28    1
    20    28    29   ar
    21    29    30   ar
    22    30    31   ar
    23    31    32    1
    24    31    33   ar
    25    33    34   ar
    26    26    27    1
    27     4     5   ar
    28     5     6    1
    29    12    13   ar
    30    13    14   ar
    31    14    15   ar
    32    15    16   ar
    33    16    17   ar
    34    17     8   ar
    35    16    11   ar
    36     5     1   ar
    37    27    22    1
    38    26    24    1
    39    34    28   ar
@<TRIPOS>MOLECULE
*****
 34 39 0 0 0
SMALL
GASTEIGER

@<TRIPOS>ATOM
      1 C         138.8461  142.9414  161.0337 C.ar    1  UNL1        0.1669
      2 N         139.2702  143.8358  159.9066 N.ar    1  UNL1       -0.1282
      3 N         138.9874  143.1229  158.6175 N.ar    1  UNL1       -0.1221
      4 C         138.3885  141.7878  158.9479 C.ar    1  UNL1        0.1932
      5 N         138.3012  141.6757  160.4412 N.ar    1  UNL1       -0.2884
      6 C         137.7634  140.5037  161.2074 C.3     1  UNL1        0.1340
      7 C         144.1964  142.6361  165.3384 C.3     1  UNL1        0.0521
      8 C         142.8845  142.7914  164.6279 C.ar    1  UNL1        0.0593
      9 C         142.7818  142.4755  163.1652 C.ar    1  UNL1        0.0147
     10 C         141.4699  142.6308  162.4547 C.ar    1  UNL1        0.0028
     11 C         140.2607  143.1020  163.2070 C.ar    1  UNL1        0.0206
     12 C         138.9488  143.2573  162.4965 C.ar    1  UNL1        0.0374
     13 C         137.7397  143.7285  163.2487 C.ar    1  UNL1        0.0031
     14 C         137.8424  144.0444  164.7115 C.ar    1  UNL1        0.0016
     15 C         139.1543  143.8891  165.4220 C.ar    1  UNL1        0.0191
     16 C         140.3635  143.4179  164.6697 C.ar    1  UNL1        0.0810
     17 N         141.6754  143.2626  165.3802 N.ar    1  UNL1       -0.2497
     18 S         137.9534  140.7476  157.9587 S.3     1  UNL1       -0.0756
     19 C         138.9779  139.9168  157.2444 C.3     1  UNL1        0.0666
     20 C         140.2187  139.4755  157.9626 C.3     1  UNL1        0.0294
     21 C         140.1279  138.4570  159.0600 C.3     1  UNL1        0.0730
     22 N         141.1182  138.4779  160.1865 N.3     1  UNL1       -0.2724
     23 C         142.5763  138.1409  160.0849 C.3     1  UNL1        0.0724
     24 C         143.1835  138.2942  161.4479 C.3     1  UNL1        0.0214
     25 C         143.4997  138.5283  162.8955 C.3     1  UNL1        0.0072
     26 C         142.1007  138.7260  162.3919 C.3     1  UNL1        0.0350
     27 C         140.8242  138.8396  161.6123 C.3     1  UNL1        0.0761
     28 C         141.5142  139.1290  163.7123 C.ar    1  UNL1       -0.0214
     29 C         142.3820  139.1781  164.9348 C.ar    1  UNL1       -0.0037
     30 C         141.7956  139.5811  166.2553 C.ar    1  UNL1        0.0064
     31 C         140.3412  139.9350  166.3533 C.ar    1  UNL1        0.0345
     32 BR        139.7548  140.3380  167.6738 Br      1  UNL1       -0.0490
     33 C         139.4734  139.8859  165.1309 C.ar    1  UNL1        0.0064
     34 C         140.0599  139.4829  163.8104 C.ar    1  UNL1       -0.0037
@<TRIPOS>BOND
     1     7     8    1
     2     8     9   ar
     3     9    10   ar
     4    10    11   ar
     5    11    12   ar
     6    12     1    1
     7     1     2   ar
     8     2     3   ar
     9     3     4   ar
    10     4    18    1
    11    18    19    1
    12    19    20    1
    13    20    21    1
    14    21    22    1
    15    22    23    1
    16    23    24    1
    17    24    25    1
    18    25    26    1
    19    26    28    1
    20    28    29   ar
    21    29    30   ar
    22    30    31   ar
    23    31    32    1
    24    31    33   ar
    25    33    34   ar
    26    26    27    1
    27     4     5   ar
    28     5     6    1
    29    12    13   ar
    30    13    14   ar
    31    14    15   ar
    32    15    16   ar
    33    16    17   ar
    34    17     8   ar
    35    16    11   ar
    36     5     1   ar
    37    27    22    1
    38    26    24    1
    39    34    28   ar
@<TRIPOS>MOLECULE
*****
 34 39 0 0 0
SMALL
GASTEIGER

@<TRIPOS>ATOM
      1 C         139.3507  143.2355  160.6566 C.ar    1  UNL1        0.1669
      2 N         138.6223  142.8637  159.3990 N.ar    1  UNL1       -0.1282
      3 N         139.5106  143.1899  158.2351 N.ar    1  UNL1       -0.1221
      4 C         140.7880  143.7634  158.7733 C.ar    1  UNL1        0.1932
      5 N         140.6891  143.7915  160.2699 N.ar    1  UNL1       -0.2884
      6 C         141.7436  144.2884  161.2139 C.3     1  UNL1        0.1340
      7 C         138.9073  137.6923  164.6971 C.3     1  UNL1        0.0521
      8 C         138.8884  139.0389  164.0366 C.ar    1  UNL1        0.0593
      9 C         139.4074  139.1956  162.6380 C.ar    1  UNL1        0.0147
     10 C         139.3885  140.5422  161.9776 C.ar    1  UNL1        0.0028
     11 C         138.8507  141.7321  162.7157 C.ar    1  UNL1        0.0206
     12 C         138.8318  143.0788  162.0552 C.ar    1  UNL1        0.0374
     13 C         138.2940  144.2687  162.7933 C.ar    1  UNL1        0.0031
     14 C         137.7750  144.1120  164.1919 C.ar    1  UNL1        0.0016
     15 C         137.7939  142.7654  164.8524 C.ar    1  UNL1        0.0191
     16 C         138.3317  141.5754  164.1143 C.ar    1  UNL1        0.0810
     17 N         138.3506  140.2288  164.7747 N.ar    1  UNL1       -0.2497
     18 S         141.9586  144.2272  157.9581 S.3     1  UNL1       -0.0756
     19 C         143.1990  143.3872  157.8815 C.3     1  UNL1        0.0666
     20 C         143.2461  142.0549  158.5689 C.3     1  UNL1        0.0294
     21 C         144.1863  141.8362  159.7170 C.3     1  UNL1        0.0730
     22 N         143.8278  140.8691  160.8062 N.3     1  UNL1       -0.2724
     23 C         144.0101  139.3810  160.7590 C.3     1  UNL1        0.0724
     24 C         143.5191  138.8125  162.0574 C.3     1  UNL1        0.0214
     25 C         142.9659  138.5433  163.4254 C.3     1  UNL1        0.0072
     26 C         143.0335  139.9492  162.9070 C.3     1  UNL1        0.0350
     27 C         143.2242  141.2203  162.1337 C.3     1  UNL1        0.0761
     28 C         142.4440  140.5944  164.1261 C.ar    1  UNL1       -0.0214
     29 C         142.1760  139.7745  165.3533 C.ar    1  UNL1       -0.0037
     30 C         141.5866  140.4197  166.5724 C.ar    1  UNL1        0.0064
     31 C         141.2650  141.8848  166.5644 C.ar    1  UNL1        0.0345
     32 BR        140.6755  142.5299  167.7835 Br      1  UNL1       -0.0490
     33 C         141.5329  142.7046  165.3372 C.ar    1  UNL1        0.0064
     34 C         142.1224  142.0595  164.1181 C.ar    1  UNL1       -0.0037
@<TRIPOS>BOND
     1     7     8    1
     2     8     9   ar
     3     9    10   ar
     4    10    11   ar
     5    11    12   ar
     6    12     1    1
     7     1     2   ar
     8     2     3   ar
     9     3     4   ar
    10     4    18    1
    11    18    19    1
    12    19    20    1
    13    20    21    1
    14    21    22    1
    15    22    23    1
    16    23    24    1
    17    24    25    1
    18    25    26    1
    19    26    28    1
    20    28    29   ar
    21    29    30   ar
    22    30    31   ar
    23    31    32    1
    24    31    33   ar
    25    33    34   ar
    26    26    27    1
    27     4     5   ar
    28     5     6    1
    29    12    13   ar
    30    13    14   ar
    31    14    15   ar
    32    15    16   ar
    33    16    17   ar
    34    17     8   ar
    35    16    11   ar
    36     5     1   ar
    37    27    22    1
    38    26    24    1
    39    34    28   ar
@<TRIPOS>MOLECULE
*****
 34 39 0 0 0
SMALL
GASTEIGER

@<TRIPOS>ATOM
      1 C         143.4420  142.0661  166.1680 C.ar    1  UNL1        0.1669
      2 N         143.7376  142.9047  167.3761 N.ar    1  UNL1       -0.1282
      3 N         143.2541  142.1614  168.5860 N.ar    1  UNL1       -0.1221
      4 C         142.6596  140.8634  168.1257 C.ar    1  UNL1        0.1932
      5 N         142.7758  140.8045  166.6313 N.ar    1  UNL1       -0.2884
      6 C         142.3079  139.6812  165.7542 C.3     1  UNL1        0.1340
      7 C         140.1055  146.0813  161.6963 C.3     1  UNL1        0.0521
      8 C         141.0185  145.1674  162.4588 C.ar    1  UNL1        0.0593
      9 C         140.7032  144.8076  163.8805 C.ar    1  UNL1        0.0147
     10 C         141.6161  143.8938  164.6430 C.ar    1  UNL1        0.0028
     11 C         142.8443  143.3397  163.9838 C.ar    1  UNL1        0.0206
     12 C         143.7573  142.4259  164.7463 C.ar    1  UNL1        0.0374
     13 C         144.9855  141.8718  164.0872 C.ar    1  UNL1        0.0031
     14 C         145.3008  142.2316  162.6655 C.ar    1  UNL1        0.0016
     15 C         144.3878  143.1454  161.9030 C.ar    1  UNL1        0.0191
     16 C         143.1596  143.6995  162.5622 C.ar    1  UNL1        0.0810
     17 N         142.2466  144.6134  161.7997 N.ar    1  UNL1       -0.2497
     18 S         142.0552  139.8094  169.0053 S.3     1  UNL1       -0.0756
     19 C         140.5803  139.8158  169.2784 C.3     1  UNL1        0.0666
     20 C         139.6331  140.3927  168.2685 C.3     1  UNL1        0.0294
     21 C         138.5495  139.5370  167.6823 C.3     1  UNL1        0.0730
     22 N         138.6898  138.9990  166.2891 N.3     1  UNL1       -0.2724
     23 C         138.6928  137.5506  165.8995 C.3     1  UNL1        0.0724
     24 C         138.8565  137.4714  164.4105 C.3     1  UNL1        0.0214
     25 C         139.0271  137.7053  162.9387 C.3     1  UNL1        0.0072
     26 C         138.9546  138.8710  163.8800 C.3     1  UNL1        0.0350
     27 C         138.8516  139.8151  165.0410 C.3     1  UNL1        0.0761
     28 C         139.1013  139.9307  162.8286 C.ar    1  UNL1       -0.0214
     29 C         137.8822  140.5690  162.2317 C.ar    1  UNL1       -0.0037
     30 C         138.0289  141.6287  161.1804 C.ar    1  UNL1        0.0064
     31 C         139.3948  142.0504  160.7259 C.ar    1  UNL1        0.0345
     32 BR        139.5415  143.1101  159.6745 Br      1  UNL1       -0.0490
     33 C         140.6139  141.4121  161.3228 C.ar    1  UNL1        0.0064
     34 C         140.4672  140.3524  162.3741 C.ar    1  UNL1       -0.0037
@<TRIPOS>BOND
     1     7     8    1
     2     8     9   ar
     3     9    10   ar
     4    10    11   ar
     5    11    12   ar
     6    12     1    1
     7     1     2   ar
     8     2     3   ar
     9     3     4   ar
    10     4    18    1
    11    18    19    1
    12    19    20    1
    13    20    21    1
    14    21    22    1
    15    22    23    1
    16    23    24    1
    17    24    25    1
    18    25    26    1
    19    26    28    1
    20    28    29   ar
    21    29    30   ar
    22    30    31   ar
    23    31    32    1
    24    31    33   ar
    25    33    34   ar
    26    26    27    1
    27     4     5   ar
    28     5     6    1
    29    12    13   ar
    30    13    14   ar
    31    14    15   ar
    32    15    16   ar
    33    16    17   ar
    34    17     8   ar
    35    16    11   ar
    36     5     1   ar
    37    27    22    1
    38    26    24    1
    39    34    28   ar
@<TRIPOS>MOLECULE
*****
 34 39 0 0 0
SMALL
GASTEIGER

@<TRIPOS>ATOM
      1 C         142.3633  143.4818  162.7916 C.ar    1  UNL1        0.1669
      2 N         143.7949  143.9102  162.9233 N.ar    1  UNL1       -0.1282
      3 N         144.5095  143.5339  161.6592 N.ar    1  UNL1       -0.1221
      4 C         143.5196  142.8731  160.7463 C.ar    1  UNL1        0.1932
      5 N         142.1932  142.8409  161.4461 N.ar    1  UNL1       -0.2884
      6 C         140.9202  142.2683  160.8969 C.3     1  UNL1        0.1340
      7 C         141.1624  140.1260  168.6692 C.3     1  UNL1        0.0521
      8 C         141.1944  141.0102  167.4579 C.ar    1  UNL1        0.0593
      9 C         142.2673  140.8293  166.4255 C.ar    1  UNL1        0.0147
     10 C         142.2993  141.7135  165.2142 C.ar    1  UNL1        0.0028
     11 C         141.2584  142.7785  165.0354 C.ar    1  UNL1        0.0206
     12 C         141.2904  143.6627  163.8241 C.ar    1  UNL1        0.0374
     13 C         140.2494  144.7278  163.6453 C.ar    1  UNL1        0.0031
     14 C         139.1764  144.9087  164.6778 C.ar    1  UNL1        0.0016
     15 C         139.1444  144.0245  165.8890 C.ar    1  UNL1        0.0191
     16 C         140.1854  142.9594  166.0678 C.ar    1  UNL1        0.0810
     17 N         140.1534  142.0752  167.2791 N.ar    1  UNL1       -0.2497
     18 S         143.8058  142.3383  159.3744 S.3     1  UNL1       -0.0756
     19 C         143.4101  140.9359  159.0185 C.3     1  UNL1        0.0666
     20 C         143.8333  139.7926  159.8924 C.3     1  UNL1        0.0294
     21 C         142.9708  138.5699  159.9976 C.3     1  UNL1        0.0730
     22 N         141.5023  138.7090  160.2705 N.3     1  UNL1       -0.2724
     23 C         140.4229  138.8452  159.2380 C.3     1  UNL1        0.0724
     24 C         139.1090  138.9568  159.9530 C.3     1  UNL1        0.0214
     25 C         137.9711  139.0437  160.9265 C.3     1  UNL1        0.0072
     26 C         139.3765  138.8896  161.4274 C.3     1  UNL1        0.0350
     27 C         140.8557  138.7364  161.6236 C.3     1  UNL1        0.0761
     28 C         139.0237  138.8847  162.8853 C.ar    1  UNL1       -0.0214
     29 C         139.2200  137.6410  163.7004 C.ar    1  UNL1       -0.0037
     30 C         138.8672  137.6361  165.1583 C.ar    1  UNL1        0.0064
     31 C         138.3180  138.8751  165.8012 C.ar    1  UNL1        0.0345
     32 BR        137.9652  138.8703  167.2591 Br      1  UNL1       -0.0490
     33 C         138.1217  140.1189  164.9861 C.ar    1  UNL1        0.0064
     34 C         138.4745  140.1237  163.5282 C.ar    1  UNL1       -0.0037
@<TRIPOS>BOND
     1     7     8    1
     2     8     9   ar
     3     9    10   ar
     4    10    11   ar
     5    11    12   ar
     6    12     1    1
     7     1     2   ar
     8     2     3   ar
     9     3     4   ar
    10     4    18    1
    11    18    19    1
    12    19    20    1
    13    20    21    1
    14    21    22    1
    15    22    23    1
    16    23    24    1
    17    24    25    1
    18    25    26    1
    19    26    28    1
    20    28    29   ar
    21    29    30   ar
    22    30    31   ar
    23    31    32    1
    24    31    33   ar
    25    33    34   ar
    26    26    27    1
    27     4     5   ar
    28     5     6    1
    29    12    13   ar
    30    13    14   ar
    31    14    15   ar
    32    15    16   ar
    33    16    17   ar
    34    17     8   ar
    35    16    11   ar
    36     5     1   ar
    37    27    22    1
    38    26    24    1
    39    34    28   ar
