@<TRIPOS>MOLECULE
*****
 46 50 0 0 0
SMALL
GASTEIGER

@<TRIPOS>ATOM
      1 C         141.3139  139.0165  156.7842 C.3     1  UNL1        0.0972
      2 C         140.1265  138.6211  157.6111 C.3     1  UNL1        0.0431
      3 C         140.5779  138.4848  159.0351 C.3     1  UNL1        0.0968
      4 N         142.0444  138.7959  159.0882 N.am    1  UNL1       -0.2623
      5 C         142.9049  138.7810  160.3168 C.2     1  UNL1        0.3073
      6 O         144.3634  139.1158  160.2149 O.2     1  UNL1       -0.2523
      7 N         142.3068  138.4311  161.6471 N.am    1  UNL1       -0.2626
      8 C         140.8720  138.0760  161.9029 C.3     1  UNL1        0.0964
      9 C         140.7169  137.8004  163.3692 C.3     1  UNL1        0.0390
     10 C         142.0559  137.9852  164.0197 C.3     1  UNL1        0.0759
     11 C         143.0385  138.3750  162.9553 C.3     1  UNL1        0.1106
     12 C         142.4992  139.1244  157.6971 C.3     1  UNL1        0.1147
     13 C         140.8989  140.5969  154.7643 C.3     1  UNL1        0.1152
     14 N         141.3157  139.2609  155.3043 N.am    1  UNL1       -0.2742
     15 C         141.7342  138.1695  154.3644 C.2     1  UNL1        0.2491
     16 O         141.7360  138.4139  152.8844 O.2     1  UNL1       -0.2699
     17 C         142.1511  136.8335  154.9044 C.ar    1  UNL1        0.0536
     18 C         143.5752  136.6013  155.3140 C.ar    1  UNL1        0.0045
     19 C         143.9919  135.2653  155.8540 C.ar    1  UNL1        0.0001
     20 C         142.9845  134.1617  155.9843 C.ar    1  UNL1        0.0000
     21 C         141.5604  134.3939  155.5747 C.ar    1  UNL1        0.0001
     22 C         141.1436  135.7298  155.0347 C.ar    1  UNL1        0.0045
     23 C         143.4013  132.8257  156.5243 C.ar    1  UNL1       -0.0000
     24 C         142.6254  131.5946  156.1608 C.ar    1  UNL1       -0.0001
     25 C         143.0422  130.2586  156.7008 C.ar    1  UNL1        0.0039
     26 C         144.2350  130.1538  157.6044 C.ar    1  UNL1        0.0714
     27 C         145.0109  131.3851  157.9679 C.ar    1  UNL1        0.0039
     28 C         144.5941  132.7209  157.4279 C.ar    1  UNL1       -0.0001
     29 C         144.6518  128.8180  158.1444 C.3     1  UNL1        0.4186
     30 F         145.0686  127.4821  158.6844 F       1  UNL1       -0.1659
     31 F         144.1035  129.1908  159.4898 F       1  UNL1       -0.1659
     32 F         145.2001  128.4452  156.7989 F       1  UNL1       -0.1659
     33 N         142.3590  137.8108  165.4783 N.3     1  UNL1       -0.2971
     34 H         142.9670  136.9956  165.5573 H       1  UNL1        0.1233
     35 C         143.0183  138.9187  166.2450 C.3     1  UNL1        0.0689
     36 C         142.1826  139.9042  167.0069 C.3     1  UNL1        0.0211
     37 C         141.2385  140.8113  166.2748 C.3     1  UNL1        0.0203
     38 C         140.0762  140.1497  166.9541 C.3     1  UNL1        0.0044
     39 C         142.4008  141.4728  165.5956 C.3     1  UNL1        0.0044
     40 C         140.2944  141.7184  165.5428 C.ar    1  UNL1       -0.0227
     41 C         140.4454  143.2065  165.6551 C.ar    1  UNL1       -0.0034
     42 C         139.5012  144.1136  164.9230 C.ar    1  UNL1        0.0111
     43 C         138.4061  143.5324  164.0788 C.ar    1  UNL1        0.0577
     44 CL        137.4619  144.4394  163.3467 Cl      1  UNL1       -0.0822
     45 C         138.2550  142.0443  163.9665 C.ar    1  UNL1        0.0111
     46 C         139.1992  141.1372  164.6985 C.ar    1  UNL1       -0.0034
@<TRIPOS>BOND
     1    13    14    1
     2    14    15   am
     3    15    16    2
     4    15    17    1
     5    17    18   ar
     6    18    19   ar
     7    19    20   ar
     8    20    23    1
     9    23    24   ar
    10    24    25   ar
    11    25    26   ar
    12    26    29    1
    13    29    30    1
    14    29    31    1
    15    29    32    1
    16    26    27   ar
    17    27    28   ar
    18    20    21   ar
    19    21    22   ar
    20     1    14    1
    21     1     2    1
    22     2     3    1
    23     3     4    1
    24     4     5   am
    25     5     6    2
    26     5     7   am
    27     7     8    1
    28     8     9    1
    29     9    10    1
    30    10    33    1
    31    33    35    1
    32    35    36    1
    33    36    37    1
    34    37    38    1
    35    37    39    1
    36    37    40    1
    37    40    41   ar
    38    41    42   ar
    39    42    43   ar
    40    43    44    1
    41    43    45   ar
    42    45    46   ar
    43    10    11    1
    44     4    12    1
    45    22    17   ar
    46    12     1    1
    47    28    23   ar
    48    11     7    1
    49    46    40   ar
    50    33    34    1
@<TRIPOS>MOLECULE
*****
 46 50 0 0 0
SMALL
GASTEIGER

@<TRIPOS>ATOM
      1 C         141.1479  139.0397  156.1751 C.3     1  UNL1        0.0972
      2 C         139.7796  138.6630  156.6608 C.3     1  UNL1        0.0431
      3 C         139.8469  138.4924  158.1496 C.3     1  UNL1        0.0968
      4 N         141.2567  138.7636  158.5840 N.am    1  UNL1       -0.2623
      5 C         141.7721  138.7067  159.9915 C.2     1  UNL1        0.3073
      6 O         143.2146  139.0043  160.2747 O.2     1  UNL1       -0.2523
      7 N         140.8448  138.3520  161.1159 N.am    1  UNL1       -0.2626
      8 C         139.3851  138.0311  160.9871 C.3     1  UNL1        0.0964
      9 C         138.8524  137.7367  162.3581 C.3     1  UNL1        0.0390
     10 C         139.9829  137.8757  163.3343 C.3     1  UNL1        0.0759
     11 C         141.2142  138.2559  162.5665 C.3     1  UNL1        0.1106
     12 C         142.0608  139.1018  157.3637 C.3     1  UNL1        0.1147
     13 C         141.2511  140.6451  154.1350 C.3     1  UNL1        0.1152
     14 N         141.5353  139.3072  154.7509 N.am    1  UNL1       -0.2742
     15 C         142.2068  138.2368  153.9426 C.2     1  UNL1        0.2491
     16 O         142.5942  138.5043  152.5184 O.2     1  UNL1       -0.2699
     17 C         142.4910  136.8989  154.5585 C.ar    1  UNL1        0.0536
     18 C         143.7698  136.6756  155.3100 C.ar    1  UNL1        0.0045
     19 C         144.0539  135.3377  155.9259 C.ar    1  UNL1        0.0001
     20 C         143.0592  134.2232  155.7903 C.ar    1  UNL1        0.0000
     21 C         141.7805  134.4465  155.0388 C.ar    1  UNL1        0.0001
     22 C         141.4963  135.7843  154.4229 C.ar    1  UNL1        0.0045
     23 C         143.3434  132.8852  156.4062 C.ar    1  UNL1       -0.0000
     24 C         142.4675  131.7106  156.0854 C.ar    1  UNL1       -0.0001
     25 C         142.7516  130.3727  156.7013 C.ar    1  UNL1        0.0039
     26 C         143.9118  130.2095  157.6380 C.ar    1  UNL1        0.0714
     27 C         144.7878  131.3842  157.9588 C.ar    1  UNL1        0.0039
     28 C         144.5036  132.7220  157.3429 C.ar    1  UNL1       -0.0001
     29 C         144.1960  128.8716  158.2539 C.3     1  UNL1        0.4186
     30 F         144.4802  127.5338  158.8699 F       1  UNL1       -0.1659
     31 F         143.1931  129.1553  159.3327 F       1  UNL1       -0.1659
     32 F         145.1988  128.5880  157.1752 F       1  UNL1       -0.1659
     33 N         139.8971  137.6704  164.8177 N.3     1  UNL1       -0.2971
     34 H         140.6598  138.2049  165.2335 H       1  UNL1        0.1233
     35 C         138.6484  138.0512  165.5564 C.3     1  UNL1        0.0689
     36 C         138.6086  139.3174  166.3595 C.3     1  UNL1        0.0211
     37 C         139.2583  140.5618  165.8307 C.3     1  UNL1        0.0203
     38 C         138.1968  140.6676  164.7761 C.3     1  UNL1        0.0044
     39 C         140.3197  140.4558  166.8852 C.3     1  UNL1        0.0044
     40 C         139.9079  141.8061  165.3018 C.ar    1  UNL1       -0.0227
     41 C         141.3381  141.7720  164.8510 C.ar    1  UNL1       -0.0034
     42 C         141.9877  143.0163  164.3221 C.ar    1  UNL1        0.0111
     43 C         141.2069  144.2947  164.2440 C.ar    1  UNL1        0.0577
     44 CL        141.8564  145.5391  163.7152 Cl      1  UNL1       -0.0822
     45 C         139.7767  144.3288  164.6949 C.ar    1  UNL1        0.0111
     46 C         139.1271  143.0845  165.2238 C.ar    1  UNL1       -0.0034
@<TRIPOS>BOND
     1    13    14    1
     2    14    15   am
     3    15    16    2
     4    15    17    1
     5    17    18   ar
     6    18    19   ar
     7    19    20   ar
     8    20    23    1
     9    23    24   ar
    10    24    25   ar
    11    25    26   ar
    12    26    29    1
    13    29    30    1
    14    29    31    1
    15    29    32    1
    16    26    27   ar
    17    27    28   ar
    18    20    21   ar
    19    21    22   ar
    20     1    14    1
    21     1     2    1
    22     2     3    1
    23     3     4    1
    24     4     5   am
    25     5     6    2
    26     5     7   am
    27     7     8    1
    28     8     9    1
    29     9    10    1
    30    10    33    1
    31    33    35    1
    32    35    36    1
    33    36    37    1
    34    37    38    1
    35    37    39    1
    36    37    40    1
    37    40    41   ar
    38    41    42   ar
    39    42    43   ar
    40    43    44    1
    41    43    45   ar
    42    45    46   ar
    43    10    11    1
    44     4    12    1
    45    22    17   ar
    46    12     1    1
    47    28    23   ar
    48    11     7    1
    49    46    40   ar
    50    33    34    1
@<TRIPOS>MOLECULE
*****
 46 50 0 0 0
SMALL
GASTEIGER

@<TRIPOS>ATOM
      1 C         141.4222  139.7774  157.1871 C.3     1  UNL1        0.0972
      2 C         142.4324  139.2815  158.1788 C.3     1  UNL1        0.0431
      3 C         141.7069  138.9316  159.4442 C.3     1  UNL1        0.0968
      4 N         140.2482  139.2113  159.2345 N.am    1  UNL1       -0.2623
      5 C         139.1570  139.0046  160.2428 C.2     1  UNL1        0.3073
      6 O         137.7366  139.3307  159.8881 O.2     1  UNL1       -0.2523
      7 N         139.4863  138.4718  161.6057 N.am    1  UNL1       -0.2626
      8 C         140.8531  138.1028  162.1016 C.3     1  UNL1        0.0964
      9 C         140.7182  137.6174  163.5145 C.3     1  UNL1        0.0390
     10 C         139.2680  137.6864  163.8918 C.3     1  UNL1        0.0759
     11 C         138.5067  138.2144  162.7121 C.3     1  UNL1        0.1106
     12 C         140.0723  139.7340  157.8396 C.3     1  UNL1        0.1147
     13 C         141.4699  141.6656  155.4031 C.3     1  UNL1        0.1152
     14 N         141.7112  140.2361  155.7885 N.am    1  UNL1       -0.2742
     15 C         142.2413  139.2654  154.7753 C.2     1  UNL1        0.2491
     16 O         142.5303  139.7241  153.3767 O.2     1  UNL1       -0.2699
     17 C         142.4826  137.8359  155.1607 C.ar    1  UNL1        0.0536
     18 C         141.3229  136.9016  155.3402 C.ar    1  UNL1        0.0045
     19 C         141.5642  135.4722  155.7255 C.ar    1  UNL1        0.0001
     20 C         142.9651  134.9771  155.9314 C.ar    1  UNL1        0.0000
     21 C         144.1247  135.9114  155.7519 C.ar    1  UNL1        0.0001
     22 C         143.8835  137.3408  155.3665 C.ar    1  UNL1        0.0045
     23 C         143.2063  133.5476  156.3167 C.ar    1  UNL1       -0.0000
     24 C         144.3430  133.1989  157.2312 C.ar    1  UNL1       -0.0001
     25 C         144.5843  131.7694  157.6166 C.ar    1  UNL1        0.0039
     26 C         143.6887  130.6887  157.0874 C.ar    1  UNL1        0.0714
     27 C         142.5520  131.0374  156.1729 C.ar    1  UNL1        0.0039
     28 C         142.3108  132.4668  155.7876 C.ar    1  UNL1       -0.0001
     29 C         143.9299  129.2592  157.4727 C.3     1  UNL1        0.4186
     30 F         144.1711  127.8298  157.8581 F       1  UNL1       -0.1659
     31 F         144.7335  129.0577  156.2223 F       1  UNL1       -0.1659
     32 F         143.1264  129.4607  158.7232 F       1  UNL1       -0.1659
     33 N         138.6822  137.2958  165.2162 N.3     1  UNL1       -0.2971
     34 H         139.3979  136.7614  165.7087 H       1  UNL1        0.1233
     35 C         138.2020  138.3537  166.1651 C.3     1  UNL1        0.0689
     36 C         138.5984  139.7851  165.9554 C.3     1  UNL1        0.0211
     37 C         139.6390  140.4119  166.8354 C.3     1  UNL1        0.0203
     38 C         140.2951  141.0157  165.6292 C.3     1  UNL1        0.0044
     39 C         138.9828  139.8080  168.0415 C.3     1  UNL1        0.0044
     40 C         140.6797  141.0387  167.7152 C.ar    1  UNL1       -0.0227
     41 C         140.4074  142.3571  168.3767 C.ar    1  UNL1       -0.0034
     42 C         141.4480  142.9839  169.2565 C.ar    1  UNL1        0.0111
     43 C         142.7610  142.2922  169.4749 C.ar    1  UNL1        0.0577
     44 CL        143.8017  142.9190  170.3547 Cl      1  UNL1       -0.0822
     45 C         143.0333  140.9738  168.8134 C.ar    1  UNL1        0.0111
     46 C         141.9926  140.3470  167.9336 C.ar    1  UNL1       -0.0034
@<TRIPOS>BOND
     1    13    14    1
     2    14    15   am
     3    15    16    2
     4    15    17    1
     5    17    18   ar
     6    18    19   ar
     7    19    20   ar
     8    20    23    1
     9    23    24   ar
    10    24    25   ar
    11    25    26   ar
    12    26    29    1
    13    29    30    1
    14    29    31    1
    15    29    32    1
    16    26    27   ar
    17    27    28   ar
    18    20    21   ar
    19    21    22   ar
    20     1    14    1
    21     1     2    1
    22     2     3    1
    23     3     4    1
    24     4     5   am
    25     5     6    2
    26     5     7   am
    27     7     8    1
    28     8     9    1
    29     9    10    1
    30    10    33    1
    31    33    35    1
    32    35    36    1
    33    36    37    1
    34    37    38    1
    35    37    39    1
    36    37    40    1
    37    40    41   ar
    38    41    42   ar
    39    42    43   ar
    40    43    44    1
    41    43    45   ar
    42    45    46   ar
    43    10    11    1
    44     4    12    1
    45    22    17   ar
    46    12     1    1
    47    28    23   ar
    48    11     7    1
    49    46    40   ar
    50    33    34    1
@<TRIPOS>MOLECULE
*****
 46 50 0 0 0
SMALL
GASTEIGER

@<TRIPOS>ATOM
      1 C         141.1927  139.3700  156.8926 C.3     1  UNL1        0.0972
      2 C         142.2253  138.8211  157.8320 C.3     1  UNL1        0.0431
      3 C         141.5702  138.6000  159.1632 C.3     1  UNL1        0.0968
      4 N         140.1327  139.0123  159.0465 N.am    1  UNL1       -0.2623
      5 C         139.1083  138.9582  160.1408 C.2     1  UNL1        0.3073
      6 O         137.7019  139.4065  159.8745 O.2     1  UNL1       -0.2523
      7 N         139.4904  138.4557  161.5015 N.am    1  UNL1       -0.2626
      8 C         140.8504  137.9763  161.9146 C.3     1  UNL1        0.0964
      9 C         140.7801  137.5688  163.3565 C.3     1  UNL1        0.0390
     10 C         139.3766  137.7964  163.8346 C.3     1  UNL1        0.0759
     11 C         138.5795  138.3446  162.6881 C.3     1  UNL1        0.1106
     12 C         139.8994  139.4882  157.6432 C.3     1  UNL1        0.1147
     13 C         141.0779  141.1162  154.9722 C.3     1  UNL1        0.1152
     14 N         141.4145  139.7365  155.4551 N.am    1  UNL1       -0.2742
     15 C         141.9729  138.7232  154.5004 C.2     1  UNL1        0.2491
     16 O         142.1947  139.0896  153.0628 O.2     1  UNL1       -0.2699
     17 C         142.3095  137.3435  154.9832 C.ar    1  UNL1        0.0536
     18 C         141.2219  136.3268  155.1662 C.ar    1  UNL1        0.0045
     19 C         141.5586  134.9471  155.6490 C.ar    1  UNL1        0.0001
     20 C         142.9828  134.5841  155.9488 C.ar    1  UNL1        0.0000
     21 C         144.0704  135.6008  155.7657 C.ar    1  UNL1        0.0001
     22 C         143.7337  136.9804  155.2829 C.ar    1  UNL1        0.0045
     23 C         143.3194  133.2044  156.4316 C.ar    1  UNL1       -0.0000
     24 C         144.4658  132.9995  157.3770 C.ar    1  UNL1       -0.0001
     25 C         144.8024  131.6197  157.8598 C.ar    1  UNL1        0.0039
     26 C         143.9925  130.4449  157.3972 C.ar    1  UNL1        0.0714
     27 C         142.8461  130.6498  156.4517 C.ar    1  UNL1        0.0039
     28 C         142.5096  132.0295  155.9690 C.ar    1  UNL1       -0.0001
     29 C         144.3291  129.0652  157.8799 C.3     1  UNL1        0.4186
     30 F         144.6656  127.6855  158.3627 F       1  UNL1       -0.1659
     31 F         143.6466  129.3550  159.1839 F       1  UNL1       -0.1659
     32 F         145.0115  128.7754  156.5760 F       1  UNL1       -0.1659
     33 N         138.8608  137.5237  165.2164 N.3     1  UNL1       -0.2971
     34 H         139.6557  137.2030  165.7694 H       1  UNL1        0.1233
     35 C         138.2016  138.6193  166.0006 C.3     1  UNL1        0.0689
     36 C         139.0171  139.4778  166.9214 C.3     1  UNL1        0.0211
     37 C         139.9557  140.5026  166.3565 C.3     1  UNL1        0.0203
     38 C         138.8381  141.0728  165.5343 C.3     1  UNL1        0.0044
     39 C         141.0731  139.9323  167.1788 C.3     1  UNL1        0.0044
     40 C         140.8941  141.5274  165.7917 C.ar    1  UNL1       -0.0227
     41 C         140.3526  142.7049  165.0366 C.ar    1  UNL1       -0.0034
     42 C         141.2911  143.7297  164.4718 C.ar    1  UNL1        0.0111
     43 C         142.7710  143.5769  164.6619 C.ar    1  UNL1        0.0577
     44 CL        143.7096  144.6016  164.0971 Cl      1  UNL1       -0.0822
     45 C         143.3126  142.3993  165.4170 C.ar    1  UNL1        0.0111
     46 C         142.3741  141.3745  165.9819 C.ar    1  UNL1       -0.0034
@<TRIPOS>BOND
     1    13    14    1
     2    14    15   am
     3    15    16    2
     4    15    17    1
     5    17    18   ar
     6    18    19   ar
     7    19    20   ar
     8    20    23    1
     9    23    24   ar
    10    24    25   ar
    11    25    26   ar
    12    26    29    1
    13    29    30    1
    14    29    31    1
    15    29    32    1
    16    26    27   ar
    17    27    28   ar
    18    20    21   ar
    19    21    22   ar
    20     1    14    1
    21     1     2    1
    22     2     3    1
    23     3     4    1
    24     4     5   am
    25     5     6    2
    26     5     7   am
    27     7     8    1
    28     8     9    1
    29     9    10    1
    30    10    33    1
    31    33    35    1
    32    35    36    1
    33    36    37    1
    34    37    38    1
    35    37    39    1
    36    37    40    1
    37    40    41   ar
    38    41    42   ar
    39    42    43   ar
    40    43    44    1
    41    43    45   ar
    42    45    46   ar
    43    10    11    1
    44     4    12    1
    45    22    17   ar
    46    12     1    1
    47    28    23   ar
    48    11     7    1
    49    46    40   ar
    50    33    34    1
@<TRIPOS>MOLECULE
*****
 46 50 0 0 0
SMALL
GASTEIGER

@<TRIPOS>ATOM
      1 C         139.6379  140.8394  156.4456 C.3     1  UNL1        0.0972
      2 C         139.6509  139.4981  157.1169 C.3     1  UNL1        0.0431
      3 C         139.2971  139.6988  158.5607 C.3     1  UNL1        0.0968
      4 N         139.0654  141.1642  158.7817 N.am    1  UNL1       -0.2623
      5 C         138.6891  141.8112  160.0816 C.2     1  UNL1        0.3073
      6 O         138.4898  143.2962  160.1503 O.2     1  UNL1       -0.2523
      7 N         138.5123  140.9730  161.3130 N.am    1  UNL1       -0.2626
      8 C         138.6772  139.4844  161.3975 C.3     1  UNL1        0.0964
      9 C         138.4062  139.0676  162.8127 C.3     1  UNL1        0.0390
     10 C         138.0739  140.2986  163.6029 C.3     1  UNL1        0.0759
     11 C         138.1394  141.4762  162.6759 C.3     1  UNL1        0.1106
     12 C         139.2761  141.8691  157.4745 C.3     1  UNL1        0.1147
     13 C         141.3468  141.3482  154.5559 C.3     1  UNL1        0.1152
     14 N         139.9347  141.1044  154.9993 N.am    1  UNL1       -0.2742
     15 C         138.8194  141.1257  153.9965 C.2     1  UNL1        0.2491
     16 O         139.1162  141.3908  152.5502 O.2     1  UNL1       -0.2699
     17 C         137.4073  140.8820  154.4399 C.ar    1  UNL1        0.0536
     18 C         136.8540  139.4878  154.4484 C.ar    1  UNL1        0.0045
     19 C         135.4419  139.2441  154.8919 C.ar    1  UNL1        0.0001
     20 C         134.5832  140.3945  155.3267 C.ar    1  UNL1        0.0000
     21 C         135.1365  141.7887  155.3182 C.ar    1  UNL1        0.0001
     22 C         136.5486  142.0324  154.8748 C.ar    1  UNL1        0.0045
     23 C         133.1711  140.1508  155.7702 C.ar    1  UNL1       -0.0000
     24 C         132.1130  141.1800  155.5037 C.ar    1  UNL1       -0.0001
     25 C         130.7009  140.9363  155.9471 C.ar    1  UNL1        0.0039
     26 C         130.3469  139.6632  156.6570 C.ar    1  UNL1        0.0714
     27 C         131.4051  138.6339  156.9235 C.ar    1  UNL1        0.0039
     28 C         132.8171  138.8777  156.4801 C.ar    1  UNL1       -0.0001
     29 C         128.9349  139.4194  157.1004 C.3     1  UNL1        0.4186
     30 F         127.5228  139.1756  157.5438 F       1  UNL1       -0.1659
     31 F         128.5473  140.7855  156.6172 F       1  UNL1       -0.1659
     32 F         129.3225  138.0533  157.5836 F       1  UNL1       -0.1659
     33 N         137.7354  140.3440  165.0635 N.3     1  UNL1       -0.2971
     34 H         136.7260  140.2171  165.1359 H       1  UNL1        0.1233
     35 C         138.3640  139.3644  166.0097 C.3     1  UNL1        0.0689
     36 C         139.5183  139.7870  166.8694 C.3     1  UNL1        0.0211
     37 C         140.8252  140.1652  166.2376 C.3     1  UNL1        0.0203
     38 C         140.9308  138.7951  165.6363 C.3     1  UNL1        0.0044
     39 C         140.7194  141.5352  166.8390 C.3     1  UNL1        0.0044
     40 C         142.1320  140.5432  165.6058 C.ar    1  UNL1       -0.0227
     41 C         142.6619  141.9385  165.7561 C.ar    1  UNL1       -0.0034
     42 C         143.9688  142.3165  165.1243 C.ar    1  UNL1        0.0111
     43 C         144.7457  141.2993  164.3423 C.ar    1  UNL1        0.0577
     44 CL        146.0526  141.6773  163.7104 Cl      1  UNL1       -0.0822
     45 C         144.2159  139.9041  164.1920 C.ar    1  UNL1        0.0111
     46 C         142.9090  139.5260  164.8238 C.ar    1  UNL1       -0.0034
@<TRIPOS>BOND
     1    13    14    1
     2    14    15   am
     3    15    16    2
     4    15    17    1
     5    17    18   ar
     6    18    19   ar
     7    19    20   ar
     8    20    23    1
     9    23    24   ar
    10    24    25   ar
    11    25    26   ar
    12    26    29    1
    13    29    30    1
    14    29    31    1
    15    29    32    1
    16    26    27   ar
    17    27    28   ar
    18    20    21   ar
    19    21    22   ar
    20     1    14    1
    21     1     2    1
    22     2     3    1
    23     3     4    1
    24     4     5   am
    25     5     6    2
    26     5     7   am
    27     7     8    1
    28     8     9    1
    29     9    10    1
    30    10    33    1
    31    33    35    1
    32    35    36    1
    33    36    37    1
    34    37    38    1
    35    37    39    1
    36    37    40    1
    37    40    41   ar
    38    41    42   ar
    39    42    43   ar
    40    43    44    1
    41    43    45   ar
    42    45    46   ar
    43    10    11    1
    44     4    12    1
    45    22    17   ar
    46    12     1    1
    47    28    23   ar
    48    11     7    1
    49    46    40   ar
    50    33    34    1
@<TRIPOS>MOLECULE
*****
 46 50 0 0 0
SMALL
GASTEIGER

@<TRIPOS>ATOM
      1 C         143.1828  140.3558  157.0589 C.3     1  UNL1        0.0972
      2 C         141.6870  140.2617  156.9979 C.3     1  UNL1        0.0431
      3 C         141.2032  139.7146  158.3081 C.3     1  UNL1        0.0968
      4 N         142.3999  139.4706  159.1789 N.am    1  UNL1       -0.2623
      5 C         142.3772  138.9260  160.5763 C.2     1  UNL1        0.3073
      6 O         143.6612  138.7352  161.3278 O.2     1  UNL1       -0.2523
      7 N         141.0704  138.5722  161.2222 N.am    1  UNL1       -0.2626
      8 C         139.7131  138.7078  160.5980 C.3     1  UNL1        0.0964
      9 C         138.6953  138.2401  161.5957 C.3     1  UNL1        0.0390
     10 C         139.4236  137.8154  162.8365 C.3     1  UNL1        0.0759
     11 C         140.8915  138.0207  162.6056 C.3     1  UNL1        0.1106
     12 C         143.6234  139.8669  158.4068 C.3     1  UNL1        0.1147
     13 C         144.6313  142.2458  156.0198 C.3     1  UNL1        0.1152
     14 N         144.0805  140.8517  155.9642 N.am    1  UNL1       -0.2742
     15 C         144.4272  139.9536  154.8140 C.2     1  UNL1        0.2491
     16 O         145.3248  140.4495  153.7193 O.2     1  UNL1       -0.2699
     17 C         143.8763  138.5595  154.7584 C.ar    1  UNL1        0.0536
     18 C         144.5634  137.4514  155.5000 C.ar    1  UNL1        0.0045
     19 C         144.0125  136.0574  155.4444 C.ar    1  UNL1        0.0001
     20 C         142.7745  135.7714  154.6471 C.ar    1  UNL1        0.0000
     21 C         142.0874  136.8795  153.9055 C.ar    1  UNL1        0.0001
     22 C         142.6383  138.2735  153.9611 C.ar    1  UNL1        0.0045
     23 C         142.2236  134.3773  154.5915 C.ar    1  UNL1       -0.0000
     24 C         141.5736  133.8773  153.3356 C.ar    1  UNL1       -0.0001
     25 C         141.0227  132.4831  153.2800 C.ar    1  UNL1        0.0039
     26 C         141.1219  131.5891  154.4804 C.ar    1  UNL1        0.0714
     27 C         141.7721  132.0892  155.7363 C.ar    1  UNL1        0.0039
     28 C         142.3229  133.4832  155.7919 C.ar    1  UNL1       -0.0001
     29 C         140.5711  130.1950  154.4248 C.3     1  UNL1        0.4186
     30 F         140.0203  128.8010  154.3693 F       1  UNL1       -0.1659
     31 F         139.5099  130.6524  153.4685 F       1  UNL1       -0.1659
     32 F         141.6322  129.7376  155.3812 F       1  UNL1       -0.1659
     33 N         138.7944  137.2796  164.0882 N.3     1  UNL1       -0.2971
     34 H         139.2311  136.3768  164.2742 H       1  UNL1        0.1233
     35 C         138.8699  138.0678  165.3622 C.3     1  UNL1        0.0689
     36 C         138.2158  139.4148  165.4507 C.3     1  UNL1        0.0211
     37 C         139.0008  140.6524  165.1311 C.3     1  UNL1        0.0203
     38 C         140.0602  140.2322  166.1064 C.3     1  UNL1        0.0044
     39 C         137.9414  141.0724  164.1558 C.3     1  UNL1        0.0044
     40 C         139.7859  141.8899  164.8115 C.ar    1  UNL1       -0.0227
     41 C         139.1193  143.2330  164.8546 C.ar    1  UNL1       -0.0034
     42 C         139.9044  144.4705  164.5350 C.ar    1  UNL1        0.0111
     43 C         141.3560  144.3649  164.1723 C.ar    1  UNL1        0.0577
     44 CL        142.1412  145.6025  163.8527 Cl      1  UNL1       -0.0822
     45 C         142.0226  143.0219  164.1292 C.ar    1  UNL1        0.0111
     46 C         141.2375  141.7843  164.4488 C.ar    1  UNL1       -0.0034
@<TRIPOS>BOND
     1    13    14    1
     2    14    15   am
     3    15    16    2
     4    15    17    1
     5    17    18   ar
     6    18    19   ar
     7    19    20   ar
     8    20    23    1
     9    23    24   ar
    10    24    25   ar
    11    25    26   ar
    12    26    29    1
    13    29    30    1
    14    29    31    1
    15    29    32    1
    16    26    27   ar
    17    27    28   ar
    18    20    21   ar
    19    21    22   ar
    20     1    14    1
    21     1     2    1
    22     2     3    1
    23     3     4    1
    24     4     5   am
    25     5     6    2
    26     5     7   am
    27     7     8    1
    28     8     9    1
    29     9    10    1
    30    10    33    1
    31    33    35    1
    32    35    36    1
    33    36    37    1
    34    37    38    1
    35    37    39    1
    36    37    40    1
    37    40    41   ar
    38    41    42   ar
    39    42    43   ar
    40    43    44    1
    41    43    45   ar
    42    45    46   ar
    43    10    11    1
    44     4    12    1
    45    22    17   ar
    46    12     1    1
    47    28    23   ar
    48    11     7    1
    49    46    40   ar
    50    33    34    1
@<TRIPOS>MOLECULE
*****
 46 50 0 0 0
SMALL
GASTEIGER

@<TRIPOS>ATOM
      1 C         139.4949  141.7517  156.8117 C.3     1  UNL1        0.0972
      2 C         138.8774  142.8078  157.6797 C.3     1  UNL1        0.0431
      3 C         138.7004  142.2332  159.0539 C.3     1  UNL1        0.0968
      4 N         139.2084  140.8220  159.0353 N.am    1  UNL1       -0.2623
      5 C         139.2229  139.8747  160.1982 C.2     1  UNL1        0.3073
      6 O         139.7649  138.4865  160.0279 O.2     1  UNL1       -0.2523
      7 N         138.6954  140.3156  161.5313 N.am    1  UNL1       -0.2626
      8 C         138.1254  141.6658  161.8512 C.3     1  UNL1        0.0964
      9 C         137.7229  141.6685  163.2963 C.3     1  UNL1        0.0390
     10 C         138.0442  140.3200  163.8694 C.3     1  UNL1        0.0759
     11 C         138.6452  139.4839  162.7785 C.3     1  UNL1        0.1106
     12 C         139.6995  140.5244  157.6495 C.3     1  UNL1        0.1147
     13 C         141.2389  142.2860  154.9615 C.3     1  UNL1        0.1152
     14 N         139.8462  141.8973  155.3607 N.am    1  UNL1       -0.2742
     15 C         138.8048  141.6543  154.3089 C.2     1  UNL1        0.2491
     16 O         139.1560  141.7999  152.8578 O.2     1  UNL1       -0.2699
     17 C         137.4120  141.2657  154.7080 C.ar    1  UNL1        0.0536
     18 C         136.4071  142.3249  155.0517 C.ar    1  UNL1        0.0045
     19 C         135.0145  141.9362  155.4508 C.ar    1  UNL1        0.0001
     20 C         134.6267  140.4883  155.5063 C.ar    1  UNL1        0.0000
     21 C         135.6316  139.4290  155.1626 C.ar    1  UNL1        0.0001
     22 C         137.0242  139.8177  154.7635 C.ar    1  UNL1        0.0045
     23 C         133.2339  140.0996  155.9055 C.ar    1  UNL1       -0.0000
     24 C         132.9740  138.7474  156.5003 C.ar    1  UNL1       -0.0001
     25 C         131.5813  138.3587  156.8995 C.ar    1  UNL1        0.0039
     26 C         130.4485  139.3223  156.7038 C.ar    1  UNL1        0.0714
     27 C         130.7085  140.6746  156.1088 C.ar    1  UNL1        0.0039
     28 C         132.1012  141.0632  155.7097 C.ar    1  UNL1       -0.0001
     29 C         129.0558  138.9337  157.1029 C.3     1  UNL1        0.4186
     30 F         127.6631  138.5451  157.5020 F       1  UNL1       -0.1659
     31 F         129.4291  137.4850  156.9948 F       1  UNL1       -0.1659
     32 F         128.6825  140.3825  157.2110 F       1  UNL1       -0.1659
     33 N         137.8063  139.8842  165.2848 N.3     1  UNL1       -0.2971
     34 H         137.0655  139.1835  165.2566 H       1  UNL1        0.1233
     35 C         138.9288  139.2956  166.0870 C.3     1  UNL1        0.0689
     36 C         139.8632  140.1944  166.8413 C.3     1  UNL1        0.0211
     37 C         140.7073  141.1895  166.1014 C.3     1  UNL1        0.0203
     38 C         140.0675  142.3056  166.8728 C.3     1  UNL1        0.0044
     39 C         141.3470  140.0734  165.3301 C.3     1  UNL1        0.0044
     40 C         141.5514  142.1847  165.3616 C.ar    1  UNL1       -0.0227
     41 C         142.9925  142.3698  165.7341 C.ar    1  UNL1       -0.0034
     42 C         143.8366  143.3649  164.9943 C.ar    1  UNL1        0.0111
     43 C         143.2394  144.1749  163.8821 C.ar    1  UNL1        0.0577
     44 CL        144.0833  145.1701  163.1422 Cl      1  UNL1       -0.0822
     45 C         141.7982  143.9898  163.5095 C.ar    1  UNL1        0.0111
     46 C         140.9542  142.9946  164.2493 C.ar    1  UNL1       -0.0034
@<TRIPOS>BOND
     1    13    14    1
     2    14    15   am
     3    15    16    2
     4    15    17    1
     5    17    18   ar
     6    18    19   ar
     7    19    20   ar
     8    20    23    1
     9    23    24   ar
    10    24    25   ar
    11    25    26   ar
    12    26    29    1
    13    29    30    1
    14    29    31    1
    15    29    32    1
    16    26    27   ar
    17    27    28   ar
    18    20    21   ar
    19    21    22   ar
    20     1    14    1
    21     1     2    1
    22     2     3    1
    23     3     4    1
    24     4     5   am
    25     5     6    2
    26     5     7   am
    27     7     8    1
    28     8     9    1
    29     9    10    1
    30    10    33    1
    31    33    35    1
    32    35    36    1
    33    36    37    1
    34    37    38    1
    35    37    39    1
    36    37    40    1
    37    40    41   ar
    38    41    42   ar
    39    42    43   ar
    40    43    44    1
    41    43    45   ar
    42    45    46   ar
    43    10    11    1
    44     4    12    1
    45    22    17   ar
    46    12     1    1
    47    28    23   ar
    48    11     7    1
    49    46    40   ar
    50    33    34    1
@<TRIPOS>MOLECULE
*****
 46 50 0 0 0
SMALL
GASTEIGER

@<TRIPOS>ATOM
      1 C         139.2284  141.0469  156.5808 C.3     1  UNL1        0.0972
      2 C         138.7542  140.4823  157.8871 C.3     1  UNL1        0.0431
      3 C         139.9029  140.5164  158.8511 C.3     1  UNL1        0.0968
      4 N         141.0871  141.1019  158.1406 N.am    1  UNL1       -0.2623
      5 C         142.4490  141.3211  158.7297 C.2     1  UNL1        0.3073
      6 O         143.5406  141.9196  157.8930 O.2     1  UNL1       -0.2523
      7 N         142.7193  140.9418  160.1555 N.am    1  UNL1       -0.2626
      8 C         141.7321  140.3369  161.1094 C.3     1  UNL1        0.0964
      9 C         142.4269  140.1221  162.4213 C.3     1  UNL1        0.0390
     10 C         143.8436  140.5942  162.2783 C.3     1  UNL1        0.0759
     11 C         144.0242  141.1009  160.8780 C.3     1  UNL1        0.1106
     12 C         140.6702  141.4298  156.7375 C.3     1  UNL1        0.1147
     13 C         137.5454  142.4166  155.1520 C.3     1  UNL1        0.1152
     14 N         138.4053  141.2014  155.3364 N.am    1  UNL1       -0.2742
     15 C         138.4420  140.1407  154.2764 C.2     1  UNL1        0.2491
     16 O         137.6189  140.2952  153.0319 O.2     1  UNL1       -0.2699
     17 C         139.3019  138.9255  154.4608 C.ar    1  UNL1        0.0536
     18 C         140.6921  138.8981  153.8982 C.ar    1  UNL1        0.0045
     19 C         141.5519  137.6829  154.0827 C.ar    1  UNL1        0.0001
     20 C         141.0215  136.4952  154.8297 C.ar    1  UNL1        0.0000
     21 C         139.6313  136.5226  155.3922 C.ar    1  UNL1        0.0001
     22 C         138.7715  137.7378  155.2078 C.ar    1  UNL1        0.0045
     23 C         141.8814  135.2800  155.0141 C.ar    1  UNL1       -0.0000
     24 C         141.8185  134.1588  154.0196 C.ar    1  UNL1       -0.0001
     25 C         142.6784  132.9436  154.2040 C.ar    1  UNL1        0.0039
     26 C         143.6011  132.8496  155.3829 C.ar    1  UNL1        0.0714
     27 C         143.6640  133.9709  156.3774 C.ar    1  UNL1        0.0039
     28 C         142.8041  135.1860  156.1930 C.ar    1  UNL1       -0.0001
     29 C         144.4610  131.6345  155.5674 C.3     1  UNL1        0.4186
     30 F         145.3208  130.4194  155.7518 F       1  UNL1       -0.1659
     31 F         145.1764  132.3124  156.6981 F       1  UNL1       -0.1659
     32 F         143.7456  130.9566  154.4367 F       1  UNL1       -0.1659
     33 N         144.8948  140.5648  163.3478 N.3     1  UNL1       -0.2971
     34 H         145.5997  139.8906  163.0495 H       1  UNL1        0.1233
     35 C         145.6261  141.8219  163.7153 C.3     1  UNL1        0.0689
     36 C         145.0625  142.7394  164.7596 C.3     1  UNL1        0.0211
     37 C         143.5951  143.0501  164.7721 C.3     1  UNL1        0.0203
     38 C         143.4049  142.1054  165.9216 C.3     1  UNL1        0.0044
     39 C         143.7853  143.9948  163.6226 C.3     1  UNL1        0.0044
     40 C         142.1276  143.3607  164.7846 C.ar    1  UNL1       -0.0227
     41 C         141.6075  144.5555  164.0417 C.ar    1  UNL1       -0.0034
     42 C         140.1401  144.8661  164.0542 C.ar    1  UNL1        0.0111
     43 C         139.1928  143.9820  164.8098 C.ar    1  UNL1        0.0577
     44 CL        137.7254  144.2925  164.8224 Cl      1  UNL1       -0.0822
     45 C         139.7130  142.7872  165.5528 C.ar    1  UNL1        0.0111
     46 C         141.1804  142.4766  165.5402 C.ar    1  UNL1       -0.0034
@<TRIPOS>BOND
     1    13    14    1
     2    14    15   am
     3    15    16    2
     4    15    17    1
     5    17    18   ar
     6    18    19   ar
     7    19    20   ar
     8    20    23    1
     9    23    24   ar
    10    24    25   ar
    11    25    26   ar
    12    26    29    1
    13    29    30    1
    14    29    31    1
    15    29    32    1
    16    26    27   ar
    17    27    28   ar
    18    20    21   ar
    19    21    22   ar
    20     1    14    1
    21     1     2    1
    22     2     3    1
    23     3     4    1
    24     4     5   am
    25     5     6    2
    26     5     7   am
    27     7     8    1
    28     8     9    1
    29     9    10    1
    30    10    33    1
    31    33    35    1
    32    35    36    1
    33    36    37    1
    34    37    38    1
    35    37    39    1
    36    37    40    1
    37    40    41   ar
    38    41    42   ar
    39    42    43   ar
    40    43    44    1
    41    43    45   ar
    42    45    46   ar
    43    10    11    1
    44     4    12    1
    45    22    17   ar
    46    12     1    1
    47    28    23   ar
    48    11     7    1
    49    46    40   ar
    50    33    34    1
@<TRIPOS>MOLECULE
*****
 46 50 0 0 0
SMALL
GASTEIGER

@<TRIPOS>ATOM
      1 C         140.1292  144.2767  157.7199 C.3     1  UNL1        0.0972
      2 C         139.0262  143.2604  157.7002 C.3     1  UNL1        0.0431
      3 C         138.8272  142.7650  159.1019 C.3     1  UNL1        0.0968
      4 N         139.8073  143.4751  159.9880 N.am    1  UNL1       -0.2623
      5 C         139.9566  143.2844  161.4683 C.2     1  UNL1        0.3073
      6 O         140.9864  144.0692  162.2255 O.2     1  UNL1       -0.2523
      7 N         139.0759  142.3089  162.1914 N.am    1  UNL1       -0.2626
      8 C         138.0075  141.4580  161.5713 C.3     1  UNL1        0.0964
      9 C         137.3803  140.6362  162.6582 C.3     1  UNL1        0.0390
     10 C         138.0611  140.9793  163.9501 C.3     1  UNL1        0.0759
     11 C         139.1091  142.0131  163.6615 C.3     1  UNL1        0.1106
     12 C         140.6120  144.4094  159.1338 C.3     1  UNL1        0.1147
     13 C         140.3299  146.4821  156.3612 C.3     1  UNL1        0.1152
     14 N         140.6569  145.0284  156.5338 N.am    1  UNL1       -0.2742
     15 C         141.5114  144.3264  155.5206 C.2     1  UNL1        0.2491
     16 O         142.0391  145.0780  154.3345 O.2     1  UNL1       -0.2699
     17 C         141.8384  142.8726  155.6932 C.ar    1  UNL1        0.0536
     18 C         141.1271  141.8408  154.8690 C.ar    1  UNL1        0.0045
     19 C         141.4541  140.3871  155.0417 C.ar    1  UNL1        0.0001
     20 C         142.4924  139.9653  156.0387 C.ar    1  UNL1        0.0000
     21 C         143.2037  140.9970  156.8629 C.ar    1  UNL1        0.0001
     22 C         142.8767  142.4507  156.6902 C.ar    1  UNL1        0.0045
     23 C         142.8194  138.5115  156.2114 C.ar    1  UNL1       -0.0000
     24 C         143.8726  137.8728  155.3553 C.ar    1  UNL1       -0.0001
     25 C         144.1996  136.4191  155.5280 C.ar    1  UNL1        0.0039
     26 C         143.4733  135.6041  156.5568 C.ar    1  UNL1        0.0714
     27 C         142.4201  136.2428  157.4128 C.ar    1  UNL1        0.0039
     28 C         142.0932  137.6965  157.2401 C.ar    1  UNL1       -0.0001
     29 C         143.8003  134.1504  156.7295 C.3     1  UNL1        0.4186
     30 F         144.1272  132.6967  156.9022 F       1  UNL1       -0.1659
     31 F         143.8952  133.9948  155.2406 F       1  UNL1       -0.1659
     32 F         143.7054  134.3059  158.2183 F       1  UNL1       -0.1659
     33 N         137.7488  140.3917  165.2943 N.3     1  UNL1       -0.2971
     34 H         136.8336  139.9481  165.2164 H       1  UNL1        0.1233
     35 C         138.6714  139.3770  165.9020 C.3     1  UNL1        0.0689
     36 C         139.1328  138.2023  165.0913 C.3     1  UNL1        0.0211
     37 C         140.1491  138.3936  164.0048 C.3     1  UNL1        0.0203
     38 C         139.2364  137.7092  163.0308 C.3     1  UNL1        0.0044
     39 C         141.0617  139.0778  164.9788 C.3     1  UNL1        0.0044
     40 C         141.1654  138.5847  162.9181 C.ar    1  UNL1       -0.0227
     41 C         140.7470  139.1408  161.5893 C.ar    1  UNL1       -0.0034
     42 C         141.7632  139.3320  160.5027 C.ar    1  UNL1        0.0111
     43 C         143.1978  138.9670  160.7450 C.ar    1  UNL1        0.0577
     44 CL        144.2141  139.1582  159.6584 Cl      1  UNL1       -0.0822
     45 C         143.6162  138.4110  162.0738 C.ar    1  UNL1        0.0111
     46 C         142.5999  138.2198  163.1604 C.ar    1  UNL1       -0.0034
@<TRIPOS>BOND
     1    13    14    1
     2    14    15   am
     3    15    16    2
     4    15    17    1
     5    17    18   ar
     6    18    19   ar
     7    19    20   ar
     8    20    23    1
     9    23    24   ar
    10    24    25   ar
    11    25    26   ar
    12    26    29    1
    13    29    30    1
    14    29    31    1
    15    29    32    1
    16    26    27   ar
    17    27    28   ar
    18    20    21   ar
    19    21    22   ar
    20     1    14    1
    21     1     2    1
    22     2     3    1
    23     3     4    1
    24     4     5   am
    25     5     6    2
    26     5     7   am
    27     7     8    1
    28     8     9    1
    29     9    10    1
    30    10    33    1
    31    33    35    1
    32    35    36    1
    33    36    37    1
    34    37    38    1
    35    37    39    1
    36    37    40    1
    37    40    41   ar
    38    41    42   ar
    39    42    43   ar
    40    43    44    1
    41    43    45   ar
    42    45    46   ar
    43    10    11    1
    44     4    12    1
    45    22    17   ar
    46    12     1    1
    47    28    23   ar
    48    11     7    1
    49    46    40   ar
    50    33    34    1
