@<TRIPOS>MOLECULE
*****
 28 31 0 0 0
SMALL
GASTEIGER

@<TRIPOS>ATOM
      1 C         142.6163  139.6749  166.8387 C.2     1  UNL1        0.2403
      2 O         142.8052  140.1478  168.2496 O.2     1  UNL1       -0.2734
      3 N         141.3725  140.0417  166.0849 N.am    1  UNL1       -0.2685
      4 C         141.0460  139.6442  164.6758 C.3     1  UNL1        0.1205
      5 C         139.7085  140.2273  164.3278 C.2     1  UNL1       -0.0024
      6 C         139.2083  140.9851  165.5218 C.2     1  UNL1       -0.0047
      7 C         140.2367  140.8705  166.6077 C.3     1  UNL1        0.1203
      8 C         138.9961  140.0786  163.0161 C.ar    1  UNL1        0.0271
      9 C         138.9053  141.2436  162.0757 C.ar    1  UNL1        0.0316
     10 C         138.1929  141.0949  160.7641 C.ar    1  UNL1        0.1403
     11 F         138.1021  142.2600  159.8236 F       1  UNL1       -0.2042
     12 C         137.5714  139.7811  160.3929 C.ar    1  UNL1        0.0319
     13 C         137.6623  138.6161  161.3333 C.ar    1  UNL1        0.0319
     14 C         138.3746  138.7648  162.6449 C.ar    1  UNL1        0.1400
     15 F         138.4655  137.5998  163.5854 F       1  UNL1       -0.2042
     16 C         140.1454  141.4779  167.9762 C.ar    1  UNL1       -0.0001
     17 C         140.6050  142.8876  168.2032 C.ar    1  UNL1       -0.0023
     18 C         140.5137  143.4950  169.5717 C.ar    1  UNL1       -0.0003
     19 C         139.9629  142.6927  170.7131 C.ar    1  UNL1       -0.0000
     20 C         139.5033  141.2829  170.4860 C.ar    1  UNL1       -0.0003
     21 C         139.5946  140.6756  169.1176 C.ar    1  UNL1       -0.0023
     22 N         144.1188  137.5555  166.8236 N.3     1  UNL1       -0.3150
     23 C         143.6714  138.8352  166.1817 C.3     1  UNL1        0.1285
     24 H         143.6048  137.4133  167.6931 H       1  UNL1        0.1192
     25 H         145.1177  137.6065  167.0235 H       1  UNL1        0.1192
     26 C         144.2790  139.2752  164.8827 C.3     1  UNL1        0.0231
     27 C         145.1896  140.1898  164.1184 C.3     1  UNL1        0.0019
     28 C         144.4206  139.1227  163.3972 C.3     1  UNL1        0.0019
@<TRIPOS>BOND
     1    23    22    1
     2    23     1    1
     3     1     2    2
     4     1     3   am
     5     3     4    1
     6     4     5    1
     7     5     8    1
     8     8     9   ar
     9     9    10   ar
    10    10    11    1
    11    10    12   ar
    12    12    13   ar
    13    13    14   ar
    14    14    15    1
    15     5     6    2
    16     6     7    1
    17     7    16    1
    18    16    17   ar
    19    17    18   ar
    20    18    19   ar
    21    19    20   ar
    22    20    21   ar
    23    23    26    1
    24    26    27    1
    25    27    28    1
    26     7     3    1
    27    21    16   ar
    28    28    26    1
    29    14     8   ar
    30    22    24    1
    31    22    25    1
@<TRIPOS>MOLECULE
*****
 28 31 0 0 0
SMALL
GASTEIGER

@<TRIPOS>ATOM
      1 C         139.6103  139.9943  166.8690 C.2     1  UNL1        0.2403
      2 O         140.0271  139.9110  168.3075 O.2     1  UNL1       -0.2734
      3 N         140.0459  141.1576  166.0281 N.am    1  UNL1       -0.2685
      4 C         139.7091  141.3759  164.5828 C.3     1  UNL1        0.1205
      5 C         140.3498  142.6600  164.1463 C.2     1  UNL1       -0.0024
      6 C         141.0827  143.2353  165.3219 C.2     1  UNL1       -0.0047
      7 C         140.8949  142.3069  166.4849 C.3     1  UNL1        0.1203
      8 C         140.2715  143.2629  162.7750 C.ar    1  UNL1        0.0271
      9 C         139.8788  144.7011  162.6094 C.ar    1  UNL1        0.0316
     10 C         139.8005  145.3040  161.2382 C.ar    1  UNL1        0.1403
     11 F         139.4079  146.7422  161.0725 F       1  UNL1       -0.2042
     12 C         140.1148  144.4687  160.0326 C.ar    1  UNL1        0.0319
     13 C         140.5075  143.0305  160.1982 C.ar    1  UNL1        0.0319
     14 C         140.5858  142.4276  161.5694 C.ar    1  UNL1        0.1400
     15 F         140.9784  140.9894  161.7351 F       1  UNL1       -0.2042
     16 C         141.4572  142.4946  167.8628 C.ar    1  UNL1       -0.0001
     17 C         140.6305  143.1535  168.9269 C.ar    1  UNL1       -0.0023
     18 C         141.1928  143.3412  170.3048 C.ar    1  UNL1       -0.0003
     19 C         142.5819  142.8700  170.6185 C.ar    1  UNL1       -0.0000
     20 C         143.4086  142.2111  169.5543 C.ar    1  UNL1       -0.0003
     21 C         142.8463  142.0234  168.1765 C.ar    1  UNL1       -0.0023
     22 N         137.4462  138.5573  166.9054 N.3     1  UNL1       -0.3150
     23 C         138.7579  138.9144  166.2714 C.3     1  UNL1        0.1285
     24 H         137.2944  139.1437  167.7261 H       1  UNL1        0.1192
     25 H         137.4599  137.5768  167.1858 H       1  UNL1        0.1192
     26 C         139.2171  138.1917  165.0399 C.3     1  UNL1        0.0231
     27 C         138.9441  137.6781  163.6572 C.3     1  UNL1        0.0019
     28 C         140.2856  137.4533  164.2894 C.3     1  UNL1        0.0019
@<TRIPOS>BOND
     1    23    22    1
     2    23     1    1
     3     1     2    2
     4     1     3   am
     5     3     4    1
     6     4     5    1
     7     5     8    1
     8     8     9   ar
     9     9    10   ar
    10    10    11    1
    11    10    12   ar
    12    12    13   ar
    13    13    14   ar
    14    14    15    1
    15     5     6    2
    16     6     7    1
    17     7    16    1
    18    16    17   ar
    19    17    18   ar
    20    18    19   ar
    21    19    20   ar
    22    20    21   ar
    23    23    26    1
    24    26    27    1
    25    27    28    1
    26     7     3    1
    27    21    16   ar
    28    28    26    1
    29    14     8   ar
    30    22    24    1
    31    22    25    1
@<TRIPOS>MOLECULE
*****
 28 31 0 0 0
SMALL
GASTEIGER

@<TRIPOS>ATOM
      1 C         139.4862  141.1533  163.1257 C.2     1  UNL1        0.2403
      2 O         140.0090  140.6722  161.8046 O.2     1  UNL1       -0.2734
      3 N         140.3257  141.0125  164.3608 N.am    1  UNL1       -0.2685
      4 C         139.9387  141.4449  165.7440 C.3     1  UNL1        0.1205
      5 C         141.0734  141.1142  166.6676 C.2     1  UNL1       -0.0024
      6 C         142.1618  140.4774  165.8551 C.2     1  UNL1       -0.0047
      7 C         141.6997  140.4145  164.4295 C.3     1  UNL1        0.1203
      8 C         141.1129  141.3745  168.1443 C.ar    1  UNL1        0.0271
      9 C         142.0944  142.3599  168.7062 C.ar    1  UNL1        0.0316
     10 C         142.1339  142.6202  170.1828 C.ar    1  UNL1        0.1403
     11 F         143.1154  143.6055  170.7448 F       1  UNL1       -0.2042
     12 C         141.1918  141.8952  171.0977 C.ar    1  UNL1        0.0319
     13 C         140.2103  140.9099  170.5358 C.ar    1  UNL1        0.0319
     14 C         140.1708  140.6496  169.0591 C.ar    1  UNL1        0.1400
     15 F         139.1893  139.6642  168.4972 F       1  UNL1       -0.2042
     16 C         142.4754  139.8524  163.2752 C.ar    1  UNL1       -0.0001
     17 C         142.3520  138.3990  162.9255 C.ar    1  UNL1       -0.0023
     18 C         143.1277  137.8369  161.7712 C.ar    1  UNL1       -0.0003
     19 C         144.0267  138.7282  160.9667 C.ar    1  UNL1       -0.0000
     20 C         144.1501  140.1817  161.3164 C.ar    1  UNL1       -0.0003
     21 C         143.3744  140.7438  162.4707 C.ar    1  UNL1       -0.0023
     22 N         136.9029  140.9469  162.9412 N.3     1  UNL1       -0.3150
     23 C         138.1239  141.7751  163.2117 C.3     1  UNL1        0.1285
     24 H         137.1828  139.9922  162.7160 H       1  UNL1        0.1192
     25 H         136.3894  141.3450  162.1549 H       1  UNL1        0.1192
     26 C         137.9826  143.2253  163.5683 C.3     1  UNL1        0.0231
     27 C         137.9633  144.6680  163.1581 C.3     1  UNL1        0.0019
     28 C         137.7570  144.2943  164.5961 C.3     1  UNL1        0.0019
@<TRIPOS>BOND
     1    23    22    1
     2    23     1    1
     3     1     2    2
     4     1     3   am
     5     3     4    1
     6     4     5    1
     7     5     8    1
     8     8     9   ar
     9     9    10   ar
    10    10    11    1
    11    10    12   ar
    12    12    13   ar
    13    13    14   ar
    14    14    15    1
    15     5     6    2
    16     6     7    1
    17     7    16    1
    18    16    17   ar
    19    17    18   ar
    20    18    19   ar
    21    19    20   ar
    22    20    21   ar
    23    23    26    1
    24    26    27    1
    25    27    28    1
    26     7     3    1
    27    21    16   ar
    28    28    26    1
    29    14     8   ar
    30    22    24    1
    31    22    25    1
@<TRIPOS>MOLECULE
*****
 28 31 0 0 0
SMALL
GASTEIGER

@<TRIPOS>ATOM
      1 C         142.3507  142.9265  162.5698 C.2     1  UNL1        0.2403
      2 O         142.6269  142.1983  161.2878 O.2     1  UNL1       -0.2734
      3 N         142.1592  142.1570  163.8431 N.am    1  UNL1       -0.2685
      4 C         141.8781  142.7444  165.1944 C.3     1  UNL1        0.1205
      5 C         141.7605  141.6155  166.1751 C.2     1  UNL1       -0.0024
      6 C         141.9689  140.3305  165.4300 C.2     1  UNL1       -0.0047
      7 C         142.2154  140.6651  163.9887 C.3     1  UNL1        0.1203
      8 C         141.4831  141.7483  167.6433 C.ar    1  UNL1        0.0271
      9 C         140.1544  141.3263  168.1968 C.ar    1  UNL1        0.0316
     10 C         139.8771  141.4591  169.6649 C.ar    1  UNL1        0.1403
     11 F         138.5483  141.0371  170.2184 F       1  UNL1       -0.2042
     12 C         140.9285  142.0140  170.5796 C.ar    1  UNL1        0.0319
     13 C         142.2572  142.4361  170.0261 C.ar    1  UNL1        0.0319
     14 C         142.5345  142.3032  168.5580 C.ar    1  UNL1        0.1400
     15 F         143.8633  142.7253  168.0045 F       1  UNL1       -0.2042
     16 C         142.4727  139.6807  162.8866 C.ar    1  UNL1       -0.0001
     17 C         143.8736  139.2307  162.5949 C.ar    1  UNL1       -0.0023
     18 C         144.1310  138.2463  161.4927 C.ar    1  UNL1       -0.0003
     19 C         142.9875  137.7120  160.6822 C.ar    1  UNL1       -0.0000
     20 C         141.5866  138.1621  160.9739 C.ar    1  UNL1       -0.0003
     21 C         141.3292  139.1465  162.0761 C.ar    1  UNL1       -0.0023
     22 N         143.5189  145.2457  162.6476 N.3     1  UNL1       -0.3150
     23 C         142.2659  144.4240  162.5785 C.3     1  UNL1        0.1285
     24 H         144.3294  144.6275  162.6825 H       1  UNL1        0.1192
     25 H         143.4984  145.8271  163.4855 H       1  UNL1        0.1192
     26 C         140.9281  145.0999  162.5180 C.3     1  UNL1        0.0231
     27 C         140.0102  146.1106  161.8967 C.3     1  UNL1        0.0019
     28 C         139.5289  145.2597  163.0344 C.3     1  UNL1        0.0019
@<TRIPOS>BOND
     1    23    22    1
     2    23     1    1
     3     1     2    2
     4     1     3   am
     5     3     4    1
     6     4     5    1
     7     5     8    1
     8     8     9   ar
     9     9    10   ar
    10    10    11    1
    11    10    12   ar
    12    12    13   ar
    13    13    14   ar
    14    14    15    1
    15     5     6    2
    16     6     7    1
    17     7    16    1
    18    16    17   ar
    19    17    18   ar
    20    18    19   ar
    21    19    20   ar
    22    20    21   ar
    23    23    26    1
    24    26    27    1
    25    27    28    1
    26     7     3    1
    27    21    16   ar
    28    28    26    1
    29    14     8   ar
    30    22    24    1
    31    22    25    1
@<TRIPOS>MOLECULE
*****
 28 31 0 0 0
SMALL
GASTEIGER

@<TRIPOS>ATOM
      1 C         139.5036  141.1896  163.1967 C.2     1  UNL1        0.2403
      2 O         139.9044  140.7883  161.8080 O.2     1  UNL1       -0.2734
      3 N         140.3871  140.8493  164.3602 N.am    1  UNL1       -0.2685
      4 C         140.1194  141.1831  165.7978 C.3     1  UNL1        0.1205
      5 C         141.2602  140.6555  166.6164 C.2     1  UNL1       -0.0024
      6 C         142.2331  139.9956  165.6847 C.2     1  UNL1       -0.0047
      7 C         141.6935  140.1154  164.2902 C.3     1  UNL1        0.1203
      8 C         141.4032  140.7681  168.1054 C.ar    1  UNL1        0.0271
      9 C         140.4548  140.0353  169.0074 C.ar    1  UNL1        0.0316
     10 C         140.5978  140.1479  170.4963 C.ar    1  UNL1        0.1403
     11 F         139.6493  139.4151  171.3984 F       1  UNL1       -0.2042
     12 C         141.6891  140.9932  171.0832 C.ar    1  UNL1        0.0319
     13 C         142.6375  141.7259  170.1812 C.ar    1  UNL1        0.0319
     14 C         142.4945  141.6133  168.6923 C.ar    1  UNL1        0.1400
     15 F         143.4429  142.3461  167.7902 F       1  UNL1       -0.2042
     16 C         142.3457  139.5930  163.0446 C.ar    1  UNL1       -0.0001
     17 C         143.3401  140.4398  162.3069 C.ar    1  UNL1       -0.0023
     18 C         143.9924  139.9174  161.0613 C.ar    1  UNL1       -0.0003
     19 C         143.6501  138.5481  160.5533 C.ar    1  UNL1       -0.0000
     20 C         142.6557  137.7013  161.2909 C.ar    1  UNL1       -0.0003
     21 C         142.0035  138.2237  162.5365 C.ar    1  UNL1       -0.0023
     22 N         136.9071  141.2605  163.1427 N.3     1  UNL1       -0.3150
     23 C         138.2194  141.9313  163.4218 C.3     1  UNL1        0.1285
     24 H         137.0747  140.3111  162.8095 H       1  UNL1        0.1192
     25 H         136.4011  141.7866  162.4303 H       1  UNL1        0.1192
     26 C         138.2475  143.3437  163.9261 C.3     1  UNL1        0.0231
     27 C         138.7535  144.7517  163.8185 C.3     1  UNL1        0.0019
     28 C         137.7901  144.3821  164.9072 C.3     1  UNL1        0.0019
@<TRIPOS>BOND
     1    23    22    1
     2    23     1    1
     3     1     2    2
     4     1     3   am
     5     3     4    1
     6     4     5    1
     7     5     8    1
     8     8     9   ar
     9     9    10   ar
    10    10    11    1
    11    10    12   ar
    12    12    13   ar
    13    13    14   ar
    14    14    15    1
    15     5     6    2
    16     6     7    1
    17     7    16    1
    18    16    17   ar
    19    17    18   ar
    20    18    19   ar
    21    19    20   ar
    22    20    21   ar
    23    23    26    1
    24    26    27    1
    25    27    28    1
    26     7     3    1
    27    21    16   ar
    28    28    26    1
    29    14     8   ar
    30    22    24    1
    31    22    25    1
@<TRIPOS>MOLECULE
*****
 28 31 0 0 0
SMALL
GASTEIGER

@<TRIPOS>ATOM
      1 C         139.7465  139.9936  166.7089 C.2     1  UNL1        0.2403
      2 O         140.1258  139.9238  168.1584 O.2     1  UNL1       -0.2734
      3 N         140.1913  141.1565  165.8723 N.am    1  UNL1       -0.2685
      4 C         139.8906  141.3620  164.4172 C.3     1  UNL1        0.1205
      5 C         140.5283  142.6506  163.9896 C.2     1  UNL1       -0.0024
      6 C         141.2230  143.2416  165.1805 C.2     1  UNL1       -0.0047
      7 C         141.0148  142.3182  166.3441 C.3     1  UNL1        0.1203
      8 C         140.4797  143.2442  162.6129 C.ar    1  UNL1        0.0271
      9 C         140.9659  142.4507  161.4365 C.ar    1  UNL1        0.0316
     10 C         140.9173  143.0442  160.0598 C.ar    1  UNL1        0.1403
     11 F         141.4035  142.2507  158.8833 F       1  UNL1       -0.2042
     12 C         140.3826  144.4313  159.8595 C.ar    1  UNL1        0.0319
     13 C         139.8965  145.2248  161.0359 C.ar    1  UNL1        0.0319
     14 C         139.9450  144.6313  162.4126 C.ar    1  UNL1        0.1400
     15 F         139.4589  145.4248  163.5891 F       1  UNL1       -0.2042
     16 C         141.5380  142.5208  167.7352 C.ar    1  UNL1       -0.0001
     17 C         142.9384  142.1062  168.0775 C.ar    1  UNL1       -0.0023
     18 C         143.4616  142.3088  169.4686 C.ar    1  UNL1       -0.0003
     19 C         142.5846  142.9261  170.5173 C.ar    1  UNL1       -0.0000
     20 C         141.1843  143.3407  170.1749 C.ar    1  UNL1       -0.0003
     21 C         140.6610  143.1381  168.7839 C.ar    1  UNL1       -0.0023
     22 N         137.5501  138.6084  166.6262 N.3     1  UNL1       -0.3150
     23 C         138.9225  138.9003  166.0958 C.3     1  UNL1        0.1285
     24 H         137.3411  139.2434  167.3965 H       1  UNL1        0.1192
     25 H         137.5123  137.6452  166.9597 H       1  UNL1        0.1192
     26 C         139.4709  138.0991  164.9524 C.3     1  UNL1        0.0231
     27 C         140.5551  137.2428  164.3683 C.3     1  UNL1        0.0019
     28 C         139.3365  137.5677  163.5562 C.3     1  UNL1        0.0019
@<TRIPOS>BOND
     1    23    22    1
     2    23     1    1
     3     1     2    2
     4     1     3   am
     5     3     4    1
     6     4     5    1
     7     5     8    1
     8     8     9   ar
     9     9    10   ar
    10    10    11    1
    11    10    12   ar
    12    12    13   ar
    13    13    14   ar
    14    14    15    1
    15     5     6    2
    16     6     7    1
    17     7    16    1
    18    16    17   ar
    19    17    18   ar
    20    18    19   ar
    21    19    20   ar
    22    20    21   ar
    23    23    26    1
    24    26    27    1
    25    27    28    1
    26     7     3    1
    27    21    16   ar
    28    28    26    1
    29    14     8   ar
    30    22    24    1
    31    22    25    1
@<TRIPOS>MOLECULE
*****
 28 31 0 0 0
SMALL
GASTEIGER

@<TRIPOS>ATOM
      1 C         140.6149  142.9846  163.1901 C.2     1  UNL1        0.2403
      2 O         140.2461  142.3549  161.8796 O.2     1  UNL1       -0.2734
      3 N         140.5236  142.1873  164.4574 N.am    1  UNL1       -0.2685
      4 C         140.8572  142.6793  165.8346 C.3     1  UNL1        0.1205
      5 C         140.6224  141.5541  166.7983 C.2     1  UNL1       -0.0024
      6 C         140.1437  140.3666  166.0168 C.2     1  UNL1       -0.0047
      7 C         140.0827  140.7579  164.5700 C.3     1  UNL1        0.1203
      8 C         140.8298  141.6070  168.2830 C.ar    1  UNL1        0.0271
      9 C         141.8986  142.4872  168.8601 C.ar    1  UNL1        0.0316
     10 C         142.1060  142.5401  170.3447 C.ar    1  UNL1        0.1403
     11 F         143.1748  143.4203  170.9218 F       1  UNL1       -0.2042
     12 C         141.2447  141.7128  171.2523 C.ar    1  UNL1        0.0319
     13 C         140.1759  140.8326  170.6752 C.ar    1  UNL1        0.0319
     14 C         139.9685  140.7797  169.1906 C.ar    1  UNL1        0.1400
     15 F         138.8997  139.8995  168.6135 F       1  UNL1       -0.2042
     16 C         139.6557  139.8750  163.4351 C.ar    1  UNL1       -0.0001
     17 C         138.2158  139.8353  163.0164 C.ar    1  UNL1       -0.0023
     18 C         137.7888  138.9524  161.8815 C.ar    1  UNL1       -0.0003
     19 C         138.8016  138.1091  161.1653 C.ar    1  UNL1       -0.0000
     20 C         140.2415  138.1487  161.5840 C.ar    1  UNL1       -0.0003
     21 C         140.6685  139.0317  162.7189 C.ar    1  UNL1       -0.0023
     22 N         140.0723  145.5252  163.1693 N.3     1  UNL1       -0.3150
     23 C         141.0751  144.4115  163.2334 C.3     1  UNL1        0.1285
     24 H         139.1332  145.1335  163.0991 H       1  UNL1        0.1192
     25 H         140.2606  146.1057  162.3520 H       1  UNL1        0.1192
     26 C         142.5381  144.7249  163.3406 C.3     1  UNL1        0.0231
     27 C         143.6688  145.4278  164.0315 C.3     1  UNL1        0.0019
     28 C         143.9414  144.5646  162.8355 C.3     1  UNL1        0.0019
@<TRIPOS>BOND
     1    23    22    1
     2    23     1    1
     3     1     2    2
     4     1     3   am
     5     3     4    1
     6     4     5    1
     7     5     8    1
     8     8     9   ar
     9     9    10   ar
    10    10    11    1
    11    10    12   ar
    12    12    13   ar
    13    13    14   ar
    14    14    15    1
    15     5     6    2
    16     6     7    1
    17     7    16    1
    18    16    17   ar
    19    17    18   ar
    20    18    19   ar
    21    19    20   ar
    22    20    21   ar
    23    23    26    1
    24    26    27    1
    25    27    28    1
    26     7     3    1
    27    21    16   ar
    28    28    26    1
    29    14     8   ar
    30    22    24    1
    31    22    25    1
@<TRIPOS>MOLECULE
*****
 28 31 0 0 0
SMALL
GASTEIGER

@<TRIPOS>ATOM
      1 C         143.0335  142.3703  166.1830 C.2     1  UNL1        0.2403
      2 O         143.3249  142.5077  167.6480 O.2     1  UNL1       -0.2734
      3 N         141.7448  141.7512  165.7294 N.am    1  UNL1       -0.2685
      4 C         141.3171  141.5481  164.3061 C.3     1  UNL1        0.1205
      5 C         139.9655  140.8978  164.3165 C.2     1  UNL1       -0.0024
      6 C         139.5578  140.6989  165.7463 C.2     1  UNL1       -0.0047
      7 C         140.6574  141.2263  166.6195 C.3     1  UNL1        0.1203
      8 C         139.1624  140.5138  163.1091 C.ar    1  UNL1        0.0271
      9 C         138.9942  141.4866  161.9798 C.ar    1  UNL1        0.0316
     10 C         138.1912  141.1025  160.7725 C.ar    1  UNL1        0.1403
     11 F         138.0229  142.0753  159.6431 F       1  UNL1       -0.2042
     12 C         137.5565  139.7457  160.6944 C.ar    1  UNL1        0.0319
     13 C         137.7247  138.7729  161.8237 C.ar    1  UNL1        0.0319
     14 C         138.5277  139.1570  163.0310 C.ar    1  UNL1        0.1400
     15 F         138.6960  138.1841  164.1604 F       1  UNL1       -0.2042
     16 C         140.6679  141.2285  168.1195 C.ar    1  UNL1       -0.0001
     17 C         141.0761  139.9946  168.8684 C.ar    1  UNL1       -0.0023
     18 C         141.0866  139.9968  170.3684 C.ar    1  UNL1       -0.0003
     19 C         140.6889  141.2328  171.1194 C.ar    1  UNL1       -0.0000
     20 C         140.2807  142.4667  170.3704 C.ar    1  UNL1       -0.0003
     21 C         140.2702  142.4645  168.8705 C.ar    1  UNL1       -0.0023
     22 N         144.2073  144.3226  164.9338 N.3     1  UNL1       -0.3150
     23 C         144.0310  142.8522  165.1717 C.3     1  UNL1        0.1285
     24 H         143.5741  144.8435  165.5406 H       1  UNL1        0.1192
     25 H         143.9972  144.5370  163.9590 H       1  UNL1        0.1192
     26 C         144.8521  141.8635  164.3981 C.3     1  UNL1        0.0231
     27 C         145.9251  141.5713  163.3915 C.3     1  UNL1        0.0019
     28 C         145.2014  140.4433  164.0651 C.3     1  UNL1        0.0019
@<TRIPOS>BOND
     1    23    22    1
     2    23     1    1
     3     1     2    2
     4     1     3   am
     5     3     4    1
     6     4     5    1
     7     5     8    1
     8     8     9   ar
     9     9    10   ar
    10    10    11    1
    11    10    12   ar
    12    12    13   ar
    13    13    14   ar
    14    14    15    1
    15     5     6    2
    16     6     7    1
    17     7    16    1
    18    16    17   ar
    19    17    18   ar
    20    18    19   ar
    21    19    20   ar
    22    20    21   ar
    23    23    26    1
    24    26    27    1
    25    27    28    1
    26     7     3    1
    27    21    16   ar
    28    28    26    1
    29    14     8   ar
    30    22    24    1
    31    22    25    1
@<TRIPOS>MOLECULE
*****
 28 31 0 0 0
SMALL
GASTEIGER

@<TRIPOS>ATOM
      1 C         143.0977  142.4947  166.2659 C.2     1  UNL1        0.2403
      2 O         143.4000  142.6351  167.7284 O.2     1  UNL1       -0.2734
      3 N         141.7944  141.8985  165.8232 N.am    1  UNL1       -0.2685
      4 C         141.3547  141.6955  164.4036 C.3     1  UNL1        0.1205
      5 C         139.9905  141.0722  164.4255 C.2     1  UNL1       -0.0024
      6 C         139.5871  140.8901  165.8587 C.2     1  UNL1       -0.0047
      7 C         140.7019  141.4008  166.7226 C.3     1  UNL1        0.1203
      8 C         139.1732  140.6969  163.2249 C.ar    1  UNL1        0.0271
      9 C         138.6441  139.3004  163.0846 C.ar    1  UNL1        0.0316
     10 C         137.8268  138.9252  161.8841 C.ar    1  UNL1        0.1403
     11 F         137.2976  137.5286  161.7437 F       1  UNL1       -0.2042
     12 C         137.5386  139.9465  160.8240 C.ar    1  UNL1        0.0319
     13 C         138.0678  141.3430  160.9643 C.ar    1  UNL1        0.0319
     14 C         138.8850  141.7182  162.1648 C.ar    1  UNL1        0.1400
     15 F         139.4142  143.1148  162.3052 F       1  UNL1       -0.2042
     16 C         140.7210  141.4118  168.2224 C.ar    1  UNL1       -0.0001
     17 C         140.3334  142.6541  168.9683 C.ar    1  UNL1       -0.0023
     18 C         140.3524  142.6651  170.4681 C.ar    1  UNL1       -0.0003
     19 C         140.7591  141.4338  171.2221 C.ar    1  UNL1       -0.0000
     20 C         141.1467  140.1914  170.4761 C.ar    1  UNL1       -0.0003
     21 C         141.1276  140.1804  168.9763 C.ar    1  UNL1       -0.0023
     22 N         144.3170  144.4161  165.0122 N.3     1  UNL1       -0.3150
     23 C         144.0988  142.9506  165.2460 C.3     1  UNL1        0.1285
     24 H         143.7062  144.9532  165.6276 H       1  UNL1        0.1192
     25 H         144.1033  144.6408  164.0405 H       1  UNL1        0.1192
     26 C         144.8816  141.9409  164.4600 C.3     1  UNL1        0.0231
     27 C         145.1225  140.5191  164.0473 C.3     1  UNL1        0.0019
     28 C         145.9965  141.6140  163.5113 C.3     1  UNL1        0.0019
@<TRIPOS>BOND
     1    23    22    1
     2    23     1    1
     3     1     2    2
     4     1     3   am
     5     3     4    1
     6     4     5    1
     7     5     8    1
     8     8     9   ar
     9     9    10   ar
    10    10    11    1
    11    10    12   ar
    12    12    13   ar
    13    13    14   ar
    14    14    15    1
    15     5     6    2
    16     6     7    1
    17     7    16    1
    18    16    17   ar
    19    17    18   ar
    20    18    19   ar
    21    19    20   ar
    22    20    21   ar
    23    23    26    1
    24    26    27    1
    25    27    28    1
    26     7     3    1
    27    21    16   ar
    28    28    26    1
    29    14     8   ar
    30    22    24    1
    31    22    25    1
