@<TRIPOS>MOLECULE
*****
 17 18 0 0 0
SMALL
GASTEIGER

@<TRIPOS>ATOM
      1 C         144.2832  142.7184  165.0639 C.3     1  UNL1        0.0340
      2 C         143.1664  142.1042  165.8549 C.2     1  UNL1        0.0128
      3 C         143.3884  142.5072  167.2826 C.2     1  UNL1       -0.0271
      4 C         142.9107  142.4362  168.7028 C.3     1  UNL1        0.0283
      5 C         141.8849  141.9138  169.6644 C.3     1  UNL1        0.0343
      6 C         140.6367  141.1058  169.8623 C.3     1  UNL1        0.1179
      7 C         140.9745  141.5791  171.2450 C.3     1  UNL1        0.0321
      8 O         139.5478  140.5210  170.7121 O.3     1  UNL1       -0.3562
      9 C         139.5624  140.2688  169.2336 C.3     1  UNL1        0.1400
     10 C         139.0031  139.6685  167.9778 C.3     1  UNL1        0.0360
     11 C         139.1364  139.4955  166.4938 C.3     1  UNL1        0.0211
     12 C         138.4734  138.8395  165.3189 C.3     1  UNL1        0.0044
     13 C         137.9192  138.7571  166.9665 C.3     1  UNL1        0.0044
     14 C         139.9199  139.8047  165.2526 C.2     1  UNL1       -0.0234
     15 C         141.1049  140.4980  164.6484 C.2     1  UNL1        0.0371
     16 C         142.3152  141.3552  164.8729 C.2     1  UNL1        0.1911
     17 O         142.9523  141.5473  163.5286 O.2     1  UNL1       -0.2869
@<TRIPOS>BOND
     1     1     2    1
     2     2     3    2
     3     3     4    1
     4     4     5    1
     5     5     6    1
     6     6     7    1
     7     6     8    1
     8     8     9    1
     9     9    10    1
    10    10    11    1
    11    11    12    1
    12    11    13    1
    13    11    14    1
    14    14    15    2
    15    15    16    1
    16    16    17    2
    17    16     2    1
    18     9     6    1
@<TRIPOS>MOLECULE
*****
 17 18 0 0 0
SMALL
GASTEIGER

@<TRIPOS>ATOM
      1 C         142.2703  142.4801  170.7596 C.3     1  UNL1        0.0340
      2 C         141.8756  141.9119  169.4286 C.2     1  UNL1        0.0128
      3 C         142.9141  142.3710  168.4485 C.2     1  UNL1       -0.0271
      4 C         143.4006  142.3642  167.0295 C.3     1  UNL1        0.0283
      5 C         143.1805  141.8936  165.6224 C.3     1  UNL1        0.0343
      6 C         142.3237  141.1087  164.6737 C.3     1  UNL1        0.1179
      7 C         143.4256  141.6348  163.8024 C.3     1  UNL1        0.0321
      8 O         141.9866  140.5719  163.3142 O.3     1  UNL1       -0.3562
      9 C         141.1024  140.2587  164.4847 C.3     1  UNL1        0.1400
     10 C         139.9041  139.6134  165.1155 C.3     1  UNL1        0.0360
     11 C         139.1095  139.3778  166.3657 C.3     1  UNL1        0.0211
     12 C         137.8791  138.6814  166.8671 C.3     1  UNL1        0.0044
     13 C         138.4435  138.6735  165.2209 C.3     1  UNL1        0.0044
     14 C         138.9707  139.6266  167.8384 C.2     1  UNL1       -0.0234
     15 C         139.5319  140.2808  169.0660 C.2     1  UNL1        0.0371
     16 C         140.6148  141.1327  169.6589 C.2     1  UNL1        0.1911
     17 O         140.2989  141.2618  171.1195 O.2     1  UNL1       -0.2869
@<TRIPOS>BOND
     1     1     2    1
     2     2     3    2
     3     3     4    1
     4     4     5    1
     5     5     6    1
     6     6     7    1
     7     6     8    1
     8     8     9    1
     9     9    10    1
    10    10    11    1
    11    11    12    1
    12    11    13    1
    13    11    14    1
    14    14    15    2
    15    15    16    1
    16    16    17    2
    17    16     2    1
    18     9     6    1
@<TRIPOS>MOLECULE
*****
 17 18 0 0 0
SMALL
GASTEIGER

@<TRIPOS>ATOM
      1 C         142.5913  139.5097  167.5184 C.3     1  UNL1        0.0340
      2 C         141.5647  140.0135  166.5477 C.2     1  UNL1        0.0128
      3 C         141.1700  138.8389  165.7025 C.2     1  UNL1       -0.0271
      4 C         140.3222  138.3210  164.5786 C.3     1  UNL1        0.0283
      5 C         139.2904  138.6244  163.5330 C.3     1  UNL1        0.0343
      6 C         138.4021  139.6527  162.8976 C.3     1  UNL1        0.1179
      7 C         138.0999  138.4007  162.1287 C.3     1  UNL1        0.0321
      8 O         137.3714  140.0906  161.8997 O.3     1  UNL1       -0.3562
      9 C         137.9395  141.0793  162.8742 C.3     1  UNL1        0.1400
     10 C         138.0494  142.4515  163.4702 C.3     1  UNL1        0.0360
     11 C         138.6968  143.3334  164.4962 C.3     1  UNL1        0.0211
     12 C         138.7086  144.7473  164.9973 C.3     1  UNL1        0.0044
     13 C         137.7250  144.1465  163.6935 C.3     1  UNL1        0.0044
     14 C         139.6764  143.4452  165.6268 C.2     1  UNL1       -0.0234
     15 C         140.6769  142.7512  166.5028 C.2     1  UNL1        0.0371
     16 C         141.3808  141.4720  166.8461 C.2     1  UNL1        0.1911
     17 O         142.3039  141.7900  167.9849 O.2     1  UNL1       -0.2869
@<TRIPOS>BOND
     1     1     2    1
     2     2     3    2
     3     3     4    1
     4     4     5    1
     5     5     6    1
     6     6     7    1
     7     6     8    1
     8     8     9    1
     9     9    10    1
    10    10    11    1
    11    11    12    1
    12    11    13    1
    13    11    14    1
    14    14    15    2
    15    15    16    1
    16    16    17    2
    17    16     2    1
    18     9     6    1
@<TRIPOS>MOLECULE
*****
 17 18 0 0 0
SMALL
GASTEIGER

@<TRIPOS>ATOM
      1 C         141.0722  142.1861  168.5809 C.3     1  UNL1        0.0340
      2 C         140.4196  141.9313  167.2545 C.2     1  UNL1        0.0128
      3 C         140.0421  143.2747  166.7042 C.2     1  UNL1       -0.0271
      4 C         139.4167  144.0480  165.5813 C.3     1  UNL1        0.0283
      5 C         138.7421  144.0057  164.2423 C.3     1  UNL1        0.0343
      6 C         138.2323  143.1612  163.1122 C.3     1  UNL1        0.1179
      7 C         137.9106  144.5612  162.6805 C.3     1  UNL1        0.0321
      8 O         137.5709  142.9768  161.7786 O.3     1  UNL1       -0.3562
      9 C         138.0494  141.7826  162.5499 C.3     1  UNL1        0.1400
     10 C         138.2513  140.3077  162.7340 C.3     1  UNL1        0.0360
     11 C         138.7739  139.2047  163.6059 C.3     1  UNL1        0.0211
     12 C         138.9128  137.7122  163.6630 C.3     1  UNL1        0.0044
     13 C         138.1873  138.6094  162.3603 C.3     1  UNL1        0.0044
     14 C         139.4514  138.8238  164.8889 C.2     1  UNL1       -0.0234
     15 C         140.0685  139.2860  166.1755 C.2     1  UNL1        0.0371
     16 C         140.4295  140.4444  167.0574 C.2     1  UNL1        0.1911
     17 O         141.0876  139.8613  168.2727 O.2     1  UNL1       -0.2869
@<TRIPOS>BOND
     1     1     2    1
     2     2     3    2
     3     3     4    1
     4     4     5    1
     5     5     6    1
     6     6     7    1
     7     6     8    1
     8     8     9    1
     9     9    10    1
    10    10    11    1
    11    11    12    1
    12    11    13    1
    13    11    14    1
    14    14    15    2
    15    15    16    1
    16    16    17    2
    17    16     2    1
    18     9     6    1
@<TRIPOS>MOLECULE
*****
 17 18 0 0 0
SMALL
GASTEIGER

@<TRIPOS>ATOM
      1 C         145.2201  140.4637  164.0381 C.3     1  UNL1        0.0340
      2 C         143.7487  140.6438  164.2676 C.2     1  UNL1        0.0128
      3 C         143.1901  139.2751  164.5219 C.2     1  UNL1       -0.0271
      4 C         141.9798  138.4424  164.8248 C.3     1  UNL1        0.0283
      5 C         140.5020  138.4100  165.0801 C.3     1  UNL1        0.0343
      6 C         139.2260  139.1883  165.2067 C.3     1  UNL1        0.1179
      7 C         138.8001  137.7698  165.4442 C.3     1  UNL1        0.0321
      8 O         137.7492  139.2978  165.4454 O.3     1  UNL1       -0.3562
      9 C         138.5568  140.5301  165.1645 C.3     1  UNL1        0.1400
     10 C         138.7070  142.0095  164.9669 C.3     1  UNL1        0.0360
     11 C         139.6288  143.1566  164.6765 C.3     1  UNL1        0.0211
     12 C         139.6385  144.6464  164.5016 C.3     1  UNL1        0.0044
     13 C         138.2343  143.6803  164.8530 C.3     1  UNL1        0.0044
     14 C         141.0297  143.6074  164.3857 C.2     1  UNL1       -0.0234
     15 C         142.4647  143.2186  164.1866 C.2     1  UNL1        0.0371
     16 C         143.4783  142.1139  164.1426 C.2     1  UNL1        0.1911
     17 O         144.7973  142.7622  163.8427 O.2     1  UNL1       -0.2869
@<TRIPOS>BOND
     1     1     2    1
     2     2     3    2
     3     3     4    1
     4     4     5    1
     5     5     6    1
     6     6     7    1
     7     6     8    1
     8     8     9    1
     9     9    10    1
    10    10    11    1
    11    11    12    1
    12    11    13    1
    13    11    14    1
    14    14    15    2
    15    15    16    1
    16    16    17    2
    17    16     2    1
    18     9     6    1
@<TRIPOS>MOLECULE
*****
 17 18 0 0 0
SMALL
GASTEIGER

@<TRIPOS>ATOM
      1 C         139.3652  144.6479  164.6048 C.3     1  UNL1        0.0340
      2 C         140.1401  143.3646  164.5518 C.2     1  UNL1        0.0128
      3 C         141.5826  143.7479  164.4026 C.2     1  UNL1       -0.0271
      4 C         143.0038  143.2864  164.2708 C.3     1  UNL1        0.0283
      5 C         143.9524  142.1267  164.1984 C.3     1  UNL1        0.0343
      6 C         144.1273  140.6369  164.2082 C.3     1  UNL1        0.1179
      7 C         145.5267  141.1563  164.0608 C.3     1  UNL1        0.0321
      8 O         144.9619  139.3921  164.1485 O.3     1  UNL1       -0.3562
      9 C         143.4728  139.2902  164.2972 C.3     1  UNL1        0.1400
     10 C         142.1969  138.5139  164.4372 C.3     1  UNL1        0.0360
     11 C         140.7047  138.5547  164.5836 C.3     1  UNL1        0.0211
     12 C         139.5082  137.6600  164.7178 C.3     1  UNL1        0.0044
     13 C         141.1569  137.1246  164.5650 C.3     1  UNL1        0.0044
     14 C         139.4698  139.3996  164.6900 C.2     1  UNL1       -0.0234
     15 C         138.8844  140.7802  164.7226 C.2     1  UNL1        0.0371
     16 C         139.1342  142.2583  164.6711 C.2     1  UNL1        0.1911
     17 O         137.7926  142.9182  164.7914 O.2     1  UNL1       -0.2869
@<TRIPOS>BOND
     1     1     2    1
     2     2     3    2
     3     3     4    1
     4     4     5    1
     5     5     6    1
     6     6     7    1
     7     6     8    1
     8     8     9    1
     9     9    10    1
    10    10    11    1
    11    11    12    1
    12    11    13    1
    13    11    14    1
    14    14    15    2
    15    15    16    1
    16    16    17    2
    17    16     2    1
    18     9     6    1
@<TRIPOS>MOLECULE
*****
 17 18 0 0 0
SMALL
GASTEIGER

@<TRIPOS>ATOM
      1 C         138.8097  144.9045  165.4219 C.3     1  UNL1        0.0340
      2 C         139.1807  143.4777  165.1451 C.2     1  UNL1        0.0128
      3 C         140.3247  143.1535  166.0595 C.2     1  UNL1       -0.0271
      4 C         141.3146  142.1283  166.5277 C.3     1  UNL1        0.0283
      5 C         141.8360  140.7276  166.4009 C.3     1  UNL1        0.0343
      6 C         141.7235  139.3960  165.7195 C.3     1  UNL1        0.1179
      7 C         142.8575  139.2056  166.6827 C.3     1  UNL1        0.0321
      8 O         142.1456  137.9747  165.4923 O.3     1  UNL1       -0.3562
      9 C         141.0127  138.5564  164.6998 C.3     1  UNL1        0.1400
     10 C         139.9293  138.4754  163.6655 C.3     1  UNL1        0.0360
     11 C         138.8173  139.1786  162.9450 C.3     1  UNL1        0.0211
     12 C         137.7741  138.9622  161.8891 C.3     1  UNL1        0.0044
     13 C         138.9225  137.7729  162.4322 C.3     1  UNL1        0.0044
     14 C         138.0298  140.4428  162.7671 C.2     1  UNL1       -0.0234
     15 C         137.8168  141.8666  163.1883 C.2     1  UNL1        0.0371
     16 C         138.2458  142.9980  164.0748 C.2     1  UNL1        0.1911
     17 O         137.3480  144.1544  163.7484 O.2     1  UNL1       -0.2869
@<TRIPOS>BOND
     1     1     2    1
     2     2     3    2
     3     3     4    1
     4     4     5    1
     5     5     6    1
     6     6     7    1
     7     6     8    1
     8     8     9    1
     9     9    10    1
    10    10    11    1
    11    11    12    1
    12    11    13    1
    13    11    14    1
    14    14    15    2
    15    15    16    1
    16    16    17    2
    17    16     2    1
    18     9     6    1
@<TRIPOS>MOLECULE
*****
 17 18 0 0 0
SMALL
GASTEIGER

@<TRIPOS>ATOM
      1 C         138.9565  137.5915  165.0323 C.3     1  UNL1        0.0340
      2 C         139.8074  138.8147  164.8599 C.2     1  UNL1        0.0128
      3 C         138.8754  139.9888  164.9139 C.2     1  UNL1       -0.0271
      4 C         138.7188  141.4795  164.8536 C.3     1  UNL1        0.0283
      5 C         139.3872  142.8132  164.6982 C.3     1  UNL1        0.0343
      6 C         140.6685  143.5668  164.4969 C.3     1  UNL1        0.1179
      7 C         139.6304  144.6472  164.5693 C.3     1  UNL1        0.0321
      8 O         141.4603  144.8298  164.3298 O.3     1  UNL1       -0.3562
      9 C         142.1558  143.5009  164.3138 C.3     1  UNL1        0.1400
     10 C         143.3770  142.6363  164.2068 C.3     1  UNL1        0.0360
     11 C         143.9442  141.2478  164.2101 C.3     1  UNL1        0.0211
     12 C         145.2408  140.5034  164.0872 C.3     1  UNL1        0.0044
     13 C         145.0590  142.2327  164.0173 C.3     1  UNL1        0.0044
     14 C         143.6775  139.7759  164.3225 C.2     1  UNL1       -0.0234
     15 C         142.6615  138.6882  164.5084 C.2     1  UNL1        0.0371
     16 C         141.2188  138.3299  164.7087 C.2     1  UNL1        0.1911
     17 O         141.1632  136.8334  164.7959 O.2     1  UNL1       -0.2869
@<TRIPOS>BOND
     1     1     2    1
     2     2     3    2
     3     3     4    1
     4     4     5    1
     5     5     6    1
     6     6     7    1
     7     6     8    1
     8     8     9    1
     9     9    10    1
    10    10    11    1
    11    11    12    1
    12    11    13    1
    13    11    14    1
    14    14    15    2
    15    15    16    1
    16    16    17    2
    17    16     2    1
    18     9     6    1
@<TRIPOS>MOLECULE
*****
 17 18 0 0 0
SMALL
GASTEIGER

@<TRIPOS>ATOM
      1 C         138.9575  137.0869  165.0764 C.3     1  UNL1        0.0340
      2 C         138.7870  138.3132  164.2295 C.2     1  UNL1        0.0128
      3 C         138.8839  137.8587  162.8033 C.2     1  UNL1       -0.0271
      4 C         138.8540  138.2394  161.3527 C.3     1  UNL1        0.0283
      5 C         138.7067  139.3345  160.3383 C.3     1  UNL1        0.0343
      6 C         138.4888  140.7963  160.0821 C.3     1  UNL1        0.1179
      7 C         138.6049  140.2097  158.7065 C.3     1  UNL1        0.0321
      8 O         138.3257  141.9815  159.1774 O.3     1  UNL1       -0.3562
      9 C         138.2696  142.1607  160.6655 C.3     1  UNL1        0.1400
     10 C         138.1185  142.9945  161.9033 C.3     1  UNL1        0.0360
     11 C         138.0836  143.0330  163.4023 C.3     1  UNL1        0.0211
     12 C         137.9170  143.9796  164.5540 C.3     1  UNL1        0.0044
     13 C         137.8823  144.4212  162.8712 C.3     1  UNL1        0.0044
     14 C         138.1760  142.2638  164.6869 C.2     1  UNL1       -0.0234
     15 C         138.3662  140.9314  165.3490 C.2     1  UNL1        0.0371
     16 C         138.5940  139.4587  165.1785 C.2     1  UNL1        0.1911
     17 O         138.6558  138.8778  166.5601 O.2     1  UNL1       -0.2869
@<TRIPOS>BOND
     1     1     2    1
     2     2     3    2
     3     3     4    1
     4     4     5    1
     5     5     6    1
     6     6     7    1
     7     6     8    1
     8     8     9    1
     9     9    10    1
    10    10    11    1
    11    11    12    1
    12    11    13    1
    13    11    14    1
    14    14    15    2
    15    15    16    1
    16    16    17    2
    17    16     2    1
    18     9     6    1
