@<TRIPOS>MOLECULE
*****
 36 41 0 0 0
SMALL
GASTEIGER

@<TRIPOS>ATOM
      1 C         139.9919  144.3117  157.0211 C.2     1  UNL1        0.1012
      2 C         140.9781  145.0834  156.1954 C.2     1  UNL1        0.1182
      3 CL        140.8524  145.1025  154.7007 Cl      1  UNL1       -0.0771
      4 C         142.0900  145.8359  156.8642 C.2     1  UNL1        0.2481
      5 N         142.2157  145.8168  158.3588 N.2     1  UNL1       -0.0293
      6 C         141.2295  145.0451  159.1846 C.2     1  UNL1        0.4105
      7 N         141.1006  144.8435  160.6654 N.2     1  UNL1        0.0120
      8 C         139.9090  143.9663  160.9117 C.2     1  UNL1        0.3751
      9 N         139.3014  143.6259  159.5831 N.2     1  UNL1       -0.0450
     10 C         140.1175  144.2926  158.5157 C.3     1  UNL1        0.3609
     11 N         136.6561  142.0542  155.0145 N.3     1  UNL1       -0.2646
     12 C         136.6332  143.5538  155.0476 C.3     1  UNL1        0.0941
     13 C         137.7451  144.3062  155.7164 C.3     1  UNL1        0.1080
     14 N         138.8800  143.5592  156.3523 N.pl3   1  UNL1       -0.3034
     15 C         138.9028  142.0598  156.3192 C.3     1  UNL1        0.1080
     16 C         137.7909  141.3073  155.6503 C.3     1  UNL1        0.0941
     17 C         135.5442  141.3018  154.3457 C.3     1  UNL1        0.1222
     18 C         131.2809  139.7972  157.0737 C.3     1  UNL1        0.0754
     19 C         132.6314  139.7935  156.4209 C.ar    1  UNL1        0.1546
     20 C         133.2333  140.9196  155.6337 C.ar    1  UNL1        0.0550
     21 C         134.5910  140.4851  155.1670 C.ar    1  UNL1        0.1165
     22 N         134.8282  139.0904  155.6657 N.ar    1  UNL1       -0.0803
     23 O         133.6172  138.6630  156.4407 O.2     1  UNL1       -0.3580
     24 C         139.4121  143.5098  162.2513 C.ar    1  UNL1        0.0894
     25 C         137.9540  143.2199  162.4515 C.ar    1  UNL1        0.0078
     26 C         137.4573  142.7634  163.7913 C.ar    1  UNL1        0.0015
     27 C         138.4184  142.5966  164.9307 C.ar    1  UNL1        0.0145
     28 C         139.8765  142.8865  164.7305 C.ar    1  UNL1        0.0482
     29 C         140.3732  143.3431  163.3908 C.ar    1  UNL1        0.0222
     30 N         140.8377  142.7198  165.8699 N.pl3   1  UNL1       -0.3046
     31 C         140.3305  142.6941  167.2813 C.3     1  UNL1        0.1081
     32 C         141.2916  142.5274  168.4207 C.3     1  UNL1        0.0938
     33 N         142.7600  142.3865  168.1488 N.3     1  UNL1       -0.2686
     34 C         143.7213  142.2198  169.2882 C.3     1  UNL1        0.0897
     35 C         143.2672  142.4123  166.7373 C.3     1  UNL1        0.0938
     36 C         142.3061  142.5789  165.5979 C.3     1  UNL1        0.1081
@<TRIPOS>BOND
     1    18    19    1
     2    19    20   ar
     3    20    21   ar
     4    21    17    1
     5    17    11    1
     6    11    12    1
     7    12    13    1
     8    13    14    1
     9    14     1    1
    10     1     2    2
    11     2     3    1
    12     2     4    1
    13     4     5    2
    14     5     6    1
    15     6     7    2
    16     7     8    1
    17     8    24    1
    18    24    25   ar
    19    25    26   ar
    20    26    27   ar
    21    27    28   ar
    22    28    30    1
    23    30    31    1
    24    31    32    1
    25    32    33    1
    26    33    34    1
    27    33    35    1
    28    35    36    1
    29    28    29   ar
    30     8     9    2
    31     9    10    1
    32    14    15    1
    33    15    16    1
    34    21    22   ar
    35    22    23   ar
    36    23    19   ar
    37    16    11    1
    38    10     1    1
    39    10     6    1
    40    29    24   ar
    41    36    30    1
@<TRIPOS>MOLECULE
*****
 36 41 0 0 0
SMALL
GASTEIGER

@<TRIPOS>ATOM
      1 C         143.7380  140.7412  160.2321 C.2     1  UNL1        0.1012
      2 C         144.4112  142.0771  160.1216 C.2     1  UNL1        0.1182
      3 CL        144.5904  142.9298  161.3427 Cl      1  UNL1       -0.0771
      4 C         144.9050  142.5602  158.7903 C.2     1  UNL1        0.2481
      5 N         144.7258  141.7075  157.5693 N.2     1  UNL1       -0.0293
      6 C         144.0526  140.3716  157.6798 C.2     1  UNL1        0.4105
      7 N         143.7372  139.3191  156.6586 N.2     1  UNL1        0.0120
      8 C         143.0484  138.1855  157.3589 C.2     1  UNL1        0.3751
      9 N         142.9381  138.5373  158.8129 N.2     1  UNL1       -0.0450
     10 C         143.5588  139.8884  159.0112 C.3     1  UNL1        0.3609
     11 N         142.2563  139.2918  164.2264 N.3     1  UNL1       -0.2646
     12 C         141.4058  140.2094  163.3989 C.3     1  UNL1        0.0941
     13 C         141.8997  140.6925  162.0675 C.3     1  UNL1        0.1080
     14 N         143.2442  140.2580  161.5636 N.pl3   1  UNL1       -0.3034
     15 C         144.0946  139.3405  162.3910 C.3     1  UNL1        0.1080
     16 C         143.6007  138.8574  163.7225 C.3     1  UNL1        0.0941
     17 C         141.7625  138.8087  165.5578 C.3     1  UNL1        0.1222
     18 C         142.3029  142.5601  169.2343 C.3     1  UNL1        0.0754
     19 C         142.4063  141.2553  168.5015 C.ar    1  UNL1        0.1546
     20 C         141.8077  140.9471  167.1610 C.ar    1  UNL1        0.0550
     21 C         142.1578  139.5310  166.8116 C.ar    1  UNL1        0.1165
     22 N         142.9727  138.9640  167.9361 N.ar    1  UNL1       -0.0803
     23 O         143.1262  140.0297  168.9805 O.2     1  UNL1       -0.3580
     24 C         142.5562  136.9219  156.7178 C.ar    1  UNL1        0.0894
     25 C         141.4752  136.9794  155.6796 C.ar    1  UNL1        0.0078
     26 C         140.9831  135.7157  155.0385 C.ar    1  UNL1        0.0015
     27 C         141.5720  134.3945  155.4356 C.ar    1  UNL1        0.0145
     28 C         142.6531  134.3370  156.4739 C.ar    1  UNL1        0.0482
     29 C         143.1452  135.6007  157.1150 C.ar    1  UNL1        0.0222
     30 N         143.2420  133.0159  156.8711 N.pl3   1  UNL1       -0.3046
     31 C         144.5157  132.9701  157.6621 C.3     1  UNL1        0.1081
     32 C         145.1047  131.6491  158.0594 C.3     1  UNL1        0.0938
     33 N         144.4201  130.3738  157.6656 N.3     1  UNL1       -0.2686
     34 C         145.0091  129.0527  158.0628 C.3     1  UNL1        0.0897
     35 C         143.1465  130.4197  156.8745 C.3     1  UNL1        0.0938
     36 C         142.5574  131.7407  156.4773 C.3     1  UNL1        0.1081
@<TRIPOS>BOND
     1    18    19    1
     2    19    20   ar
     3    20    21   ar
     4    21    17    1
     5    17    11    1
     6    11    12    1
     7    12    13    1
     8    13    14    1
     9    14     1    1
    10     1     2    2
    11     2     3    1
    12     2     4    1
    13     4     5    2
    14     5     6    1
    15     6     7    2
    16     7     8    1
    17     8    24    1
    18    24    25   ar
    19    25    26   ar
    20    26    27   ar
    21    27    28   ar
    22    28    30    1
    23    30    31    1
    24    31    32    1
    25    32    33    1
    26    33    34    1
    27    33    35    1
    28    35    36    1
    29    28    29   ar
    30     8     9    2
    31     9    10    1
    32    14    15    1
    33    15    16    1
    34    21    22   ar
    35    22    23   ar
    36    23    19   ar
    37    16    11    1
    38    10     1    1
    39    10     6    1
    40    29    24   ar
    41    36    30    1
@<TRIPOS>MOLECULE
*****
 36 41 0 0 0
SMALL
GASTEIGER

@<TRIPOS>ATOM
      1 C         142.5149  140.4757  160.8302 C.2     1  UNL1        0.1012
      2 C         143.1820  141.7938  161.0905 C.2     1  UNL1        0.1182
      3 CL        142.9419  142.5131  162.3847 Cl      1  UNL1       -0.0771
      4 C         144.0890  142.3924  160.0567 C.2     1  UNL1        0.2481
      5 N         144.3290  141.6730  158.7625 N.2     1  UNL1       -0.0293
      6 C         143.6620  140.3550  158.5022 C.2     1  UNL1        0.4105
      7 N         143.7078  139.4213  157.3291 N.2     1  UNL1        0.0120
      8 C         142.8290  138.2456  157.6380 C.2     1  UNL1        0.3751
      9 N         142.2401  138.4526  159.0019 N.2     1  UNL1       -0.0450
     10 C         142.7549  139.7564  159.5360 C.3     1  UNL1        0.3609
     11 N         139.7936  138.6798  163.9317 N.3     1  UNL1       -0.2646
     12 C         139.2708  139.7225  162.9885 C.3     1  UNL1        0.0941
     13 C         140.1778  140.3211  161.9547 C.3     1  UNL1        0.1080
     14 N         141.6078  139.8771  161.8640 N.pl3   1  UNL1       -0.3034
     15 C         142.1307  138.8345  162.8072 C.3     1  UNL1        0.1080
     16 C         141.2235  138.2359  163.8411 C.3     1  UNL1        0.0941
     17 C         138.8866  138.0812  164.9655 C.3     1  UNL1        0.1222
     18 C         139.9234  141.0126  169.2332 C.3     1  UNL1        0.0754
     19 C         139.2684  140.0471  168.2905 C.ar    1  UNL1        0.1546
     20 C         139.7432  139.7035  166.9097 C.ar    1  UNL1        0.0550
     21 C         138.7918  138.6997  166.3288 C.ar    1  UNL1        0.1165
     22 N         137.7291  138.4230  167.3506 N.ar    1  UNL1       -0.0803
     23 O         138.0236  139.2557  168.5630 O.2     1  UNL1       -0.3580
     24 C         142.5824  137.0693  156.7405 C.ar    1  UNL1        0.0894
     25 C         141.8736  137.2596  155.4323 C.ar    1  UNL1        0.0078
     26 C         141.6270  136.0832  154.5349 C.ar    1  UNL1        0.0015
     27 C         142.0893  134.7165  154.9455 C.ar    1  UNL1        0.0145
     28 C         142.7981  134.5263  156.2537 C.ar    1  UNL1        0.0482
     29 C         143.0447  135.7026  157.1511 C.ar    1  UNL1        0.0222
     30 N         143.2604  133.1597  156.6645 N.pl3   1  UNL1       -0.3046
     31 C         142.5206  131.9439  156.1906 C.3     1  UNL1        0.1081
     32 C         142.9828  130.5773  156.6013 C.3     1  UNL1        0.0938
     33 N         144.1849  130.4265  157.4859 N.3     1  UNL1       -0.2686
     34 C         144.6472  129.0598  157.8966 C.3     1  UNL1        0.0897
     35 C         144.9247  131.6423  157.9597 C.3     1  UNL1        0.0938
     36 C         144.4625  133.0089  157.5490 C.3     1  UNL1        0.1081
@<TRIPOS>BOND
     1    18    19    1
     2    19    20   ar
     3    20    21   ar
     4    21    17    1
     5    17    11    1
     6    11    12    1
     7    12    13    1
     8    13    14    1
     9    14     1    1
    10     1     2    2
    11     2     3    1
    12     2     4    1
    13     4     5    2
    14     5     6    1
    15     6     7    2
    16     7     8    1
    17     8    24    1
    18    24    25   ar
    19    25    26   ar
    20    26    27   ar
    21    27    28   ar
    22    28    30    1
    23    30    31    1
    24    31    32    1
    25    32    33    1
    26    33    34    1
    27    33    35    1
    28    35    36    1
    29    28    29   ar
    30     8     9    2
    31     9    10    1
    32    14    15    1
    33    15    16    1
    34    21    22   ar
    35    22    23   ar
    36    23    19   ar
    37    16    11    1
    38    10     1    1
    39    10     6    1
    40    29    24   ar
    41    36    30    1
@<TRIPOS>MOLECULE
*****
 36 41 0 0 0
SMALL
GASTEIGER

@<TRIPOS>ATOM
      1 C         139.8584  142.8269  160.9193 C.2     1  UNL1        0.1012
      2 C         140.7181  144.0127  161.2434 C.2     1  UNL1        0.1182
      3 CL        141.2734  144.1808  162.6267 Cl      1  UNL1       -0.0771
      4 C         141.0225  145.0302  160.1842 C.2     1  UNL1        0.2481
      5 N         140.4673  144.8621  158.8009 N.2     1  UNL1       -0.0293
      6 C         139.6076  143.6764  158.4768 C.2     1  UNL1        0.4105
      7 N         138.9248  143.2474  157.2120 N.2     1  UNL1        0.0120
      8 C         138.1983  141.9648  157.4896 C.2     1  UNL1        0.3751
      9 N         138.4322  141.6010  158.9259 N.2     1  UNL1       -0.0450
     10 C         139.3032  142.6588  159.5360 C.3     1  UNL1        0.3609
     11 N         138.9451  139.7743  164.0969 N.3     1  UNL1       -0.2646
     12 C         137.9932  140.9068  163.8491 C.3     1  UNL1        0.0941
     13 C         138.2976  141.9243  162.7900 C.3     1  UNL1        0.1080
     14 N         139.5540  141.8094  161.9785 N.pl3   1  UNL1       -0.3034
     15 C         140.5059  140.6769  162.2263 C.3     1  UNL1        0.1080
     16 C         140.2014  139.6594  163.2855 C.3     1  UNL1        0.0941
     17 C         138.6407  138.7568  165.1561 C.3     1  UNL1        0.1222
     18 C         140.0521  140.9957  169.7252 C.3     1  UNL1        0.0754
     19 C         139.3181  140.1783  168.7038 C.ar    1  UNL1        0.1546
     20 C         139.6645  140.0679  167.2485 C.ar    1  UNL1        0.0550
     21 C         138.6694  139.1492  166.6036 C.ar    1  UNL1        0.1165
     22 N         137.7081  138.6919  167.6603 N.ar    1  UNL1       -0.0803
     23 O         138.1090  139.3279  168.9583 O.2     1  UNL1       -0.3580
     24 C         137.3814  141.1831  156.5038 C.ar    1  UNL1        0.0894
     25 C         138.0362  140.5852  155.2940 C.ar    1  UNL1        0.0078
     26 C         137.2192  139.8035  154.3083 C.ar    1  UNL1        0.0015
     27 C         135.7475  139.6198  154.5324 C.ar    1  UNL1        0.0145
     28 C         135.0927  140.2177  155.7422 C.ar    1  UNL1        0.0482
     29 C         135.9097  140.9993  156.7279 C.ar    1  UNL1        0.0222
     30 N         133.6210  140.0340  155.9664 N.pl3   1  UNL1       -0.3046
     31 C         133.1038  138.7448  156.5327 C.3     1  UNL1        0.1081
     32 C         131.6321  138.5610  156.7569 C.3     1  UNL1        0.0938
     33 N         130.6776  139.6664  156.4149 N.3     1  UNL1       -0.2686
     34 C         129.2058  139.4827  156.6391 C.3     1  UNL1        0.0897
     35 C         131.1947  140.9555  155.8487 C.3     1  UNL1        0.0938
     36 C         132.6664  141.1393  155.6244 C.3     1  UNL1        0.1081
@<TRIPOS>BOND
     1    18    19    1
     2    19    20   ar
     3    20    21   ar
     4    21    17    1
     5    17    11    1
     6    11    12    1
     7    12    13    1
     8    13    14    1
     9    14     1    1
    10     1     2    2
    11     2     3    1
    12     2     4    1
    13     4     5    2
    14     5     6    1
    15     6     7    2
    16     7     8    1
    17     8    24    1
    18    24    25   ar
    19    25    26   ar
    20    26    27   ar
    21    27    28   ar
    22    28    30    1
    23    30    31    1
    24    31    32    1
    25    32    33    1
    26    33    34    1
    27    33    35    1
    28    35    36    1
    29    28    29   ar
    30     8     9    2
    31     9    10    1
    32    14    15    1
    33    15    16    1
    34    21    22   ar
    35    22    23   ar
    36    23    19   ar
    37    16    11    1
    38    10     1    1
    39    10     6    1
    40    29    24   ar
    41    36    30    1
@<TRIPOS>MOLECULE
*****
 36 41 0 0 0
SMALL
GASTEIGER

@<TRIPOS>ATOM
      1 C         139.9042  144.3520  156.9437 C.2     1  UNL1        0.1012
      2 C         140.7204  145.1476  155.9686 C.2     1  UNL1        0.1182
      3 CL        140.3984  145.0974  154.5044 Cl      1  UNL1       -0.0771
      4 C         141.8585  145.9934  156.4576 C.2     1  UNL1        0.2481
      5 N         142.1805  146.0436  157.9219 N.2     1  UNL1       -0.0293
      6 C         141.3643  145.2480  158.8969 C.2     1  UNL1        0.4105
      7 N         141.4446  145.1001  160.3875 N.2     1  UNL1        0.0120
      8 C         140.3561  144.1629  160.8195 C.2     1  UNL1        0.3751
      9 N         139.6030  143.7315  159.5961 N.2     1  UNL1       -0.0450
     10 C         140.2261  144.4022  158.4078 C.3     1  UNL1        0.3609
     11 N         136.4897  141.8145  155.4764 N.3     1  UNL1       -0.2646
     12 C         137.7106  141.1655  156.0580 C.3     1  UNL1        0.0941
     13 C         138.8487  142.0113  156.5471 C.3     1  UNL1        0.1080
     14 N         138.7660  143.5062  156.4546 N.pl3   1  UNL1       -0.3034
     15 C         137.5452  144.1553  155.8730 C.3     1  UNL1        0.1080
     16 C         136.4070  143.3094  155.3839 C.3     1  UNL1        0.0941
     17 C         135.3516  140.9688  154.9873 C.3     1  UNL1        0.1222
     18 C         130.6970  139.8705  157.2256 C.3     1  UNL1        0.0754
     19 C         132.1733  139.9738  156.9808 C.ar    1  UNL1        0.1546
     20 C         132.8269  140.5941  155.7816 C.ar    1  UNL1        0.0550
     21 C         134.3127  140.4786  155.9520 C.ar    1  UNL1        0.1165
     22 N         134.5774  139.7870  157.2565 N.ar    1  UNL1       -0.0803
     23 O         133.2551  139.4750  157.8923 O.2     1  UNL1       -0.3580
     24 C         140.0707  143.7325  162.2279 C.ar    1  UNL1        0.0894
     25 C         138.9710  144.3926  163.0056 C.ar    1  UNL1        0.0078
     26 C         138.6856  143.9621  164.4139 C.ar    1  UNL1        0.0015
     27 C         139.5000  142.8717  165.0445 C.ar    1  UNL1        0.0145
     28 C         140.5998  142.2116  164.2668 C.ar    1  UNL1        0.0482
     29 C         140.8851  142.6420  162.8585 C.ar    1  UNL1        0.0222
     30 N         141.4142  141.1211  164.8973 N.pl3   1  UNL1       -0.3046
     31 C         142.0702  140.0822  164.0371 C.3     1  UNL1        0.1081
     32 C         142.8847  138.9917  164.6675 C.3     1  UNL1        0.0938
     33 N         143.0430  138.9402  166.1582 N.3     1  UNL1       -0.2686
     34 C         143.8575  137.8496  166.7888 C.3     1  UNL1        0.0897
     35 C         142.3870  139.9791  167.0185 C.3     1  UNL1        0.0938
     36 C         141.5725  141.0696  166.3881 C.3     1  UNL1        0.1081
@<TRIPOS>BOND
     1    18    19    1
     2    19    20   ar
     3    20    21   ar
     4    21    17    1
     5    17    11    1
     6    11    12    1
     7    12    13    1
     8    13    14    1
     9    14     1    1
    10     1     2    2
    11     2     3    1
    12     2     4    1
    13     4     5    2
    14     5     6    1
    15     6     7    2
    16     7     8    1
    17     8    24    1
    18    24    25   ar
    19    25    26   ar
    20    26    27   ar
    21    27    28   ar
    22    28    30    1
    23    30    31    1
    24    31    32    1
    25    32    33    1
    26    33    34    1
    27    33    35    1
    28    35    36    1
    29    28    29   ar
    30     8     9    2
    31     9    10    1
    32    14    15    1
    33    15    16    1
    34    21    22   ar
    35    22    23   ar
    36    23    19   ar
    37    16    11    1
    38    10     1    1
    39    10     6    1
    40    29    24   ar
    41    36    30    1
@<TRIPOS>MOLECULE
*****
 36 41 0 0 0
SMALL
GASTEIGER

@<TRIPOS>ATOM
      1 C         143.5486  140.7502  157.8722 C.2     1  UNL1        0.1012
      2 C         144.4899  141.9157  157.7984 C.2     1  UNL1        0.1182
      3 CL        144.2784  143.1077  158.6842 Cl      1  UNL1       -0.0771
      4 C         145.6425  141.8893  156.8390 C.2     1  UNL1        0.2481
      5 N         145.8539  140.6974  155.9531 N.2     1  UNL1       -0.0293
      6 C         144.9126  139.5318  156.0269 C.2     1  UNL1        0.4105
      7 N         144.8680  138.2292  155.2845 N.2     1  UNL1        0.0120
      8 C         143.6878  137.4505  155.7852 C.2     1  UNL1        0.3751
      9 N         143.0030  138.2719  156.8371 N.2     1  UNL1       -0.0450
     10 C         143.7599  139.5582  156.9864 C.3     1  UNL1        0.3609
     11 N         140.0906  140.8294  160.7508 N.3     1  UNL1       -0.2646
     12 C         141.4234  140.3024  161.1938 C.3     1  UNL1        0.0941
     13 C         142.5760  140.2760  160.2343 C.3     1  UNL1        0.1080
     14 N         142.3959  140.7766  158.8317 N.pl3   1  UNL1       -0.3034
     15 C         141.0632  141.3035  158.3887 C.3     1  UNL1        0.1080
     16 C         139.9106  141.3299  159.3483 C.3     1  UNL1        0.0941
     17 C         138.9380  140.8558  161.7103 C.3     1  UNL1        0.1222
     18 C         138.4279  144.7223  165.2700 C.3     1  UNL1        0.0754
     19 C         138.3080  143.9197  164.0085 C.ar    1  UNL1        0.1546
     20 C         138.9155  142.5707  163.7606 C.ar    1  UNL1        0.0550
     21 C         138.5425  142.1424  162.3723 C.ar    1  UNL1        0.1165
     22 N         137.7045  143.2266  161.7621 N.ar    1  UNL1       -0.0803
     23 O         137.5596  144.3250  162.7733 O.2     1  UNL1       -0.3580
     24 C         143.2664  136.0894  155.3164 C.ar    1  UNL1        0.0894
     25 C         142.4572  135.9456  154.0616 C.ar    1  UNL1        0.0078
     26 C         142.0358  134.5844  153.5929 C.ar    1  UNL1        0.0015
     27 C         142.4235  133.3671  154.3789 C.ar    1  UNL1        0.0145
     28 C         143.2327  133.5109  155.6337 C.ar    1  UNL1        0.0482
     29 C         143.6541  134.8721  156.1024 C.ar    1  UNL1        0.0222
     30 N         143.6204  132.2937  156.4198 N.pl3   1  UNL1       -0.3046
     31 C         144.7865  132.3493  157.3617 C.3     1  UNL1        0.1081
     32 C         145.1743  131.1321  158.1478 C.3     1  UNL1        0.0938
     33 N         144.3961  129.8593  157.9920 N.3     1  UNL1       -0.2686
     34 C         144.7838  128.6420  158.7781 C.3     1  UNL1        0.0897
     35 C         143.2300  129.8037  157.0501 C.3     1  UNL1        0.0938
     36 C         142.8422  131.0209  156.2640 C.3     1  UNL1        0.1081
@<TRIPOS>BOND
     1    18    19    1
     2    19    20   ar
     3    20    21   ar
     4    21    17    1
     5    17    11    1
     6    11    12    1
     7    12    13    1
     8    13    14    1
     9    14     1    1
    10     1     2    2
    11     2     3    1
    12     2     4    1
    13     4     5    2
    14     5     6    1
    15     6     7    2
    16     7     8    1
    17     8    24    1
    18    24    25   ar
    19    25    26   ar
    20    26    27   ar
    21    27    28   ar
    22    28    30    1
    23    30    31    1
    24    31    32    1
    25    32    33    1
    26    33    34    1
    27    33    35    1
    28    35    36    1
    29    28    29   ar
    30     8     9    2
    31     9    10    1
    32    14    15    1
    33    15    16    1
    34    21    22   ar
    35    22    23   ar
    36    23    19   ar
    37    16    11    1
    38    10     1    1
    39    10     6    1
    40    29    24   ar
    41    36    30    1
@<TRIPOS>MOLECULE
*****
 36 41 0 0 0
SMALL
GASTEIGER

@<TRIPOS>ATOM
      1 C         142.8116  139.1025  158.4329 C.2     1  UNL1        0.1012
      2 C         143.4798  140.4448  158.4738 C.2     1  UNL1        0.1182
      3 CL        143.2089  141.3830  159.6126 Cl      1  UNL1       -0.0771
      4 C         144.4188  140.8490  157.3762 C.2     1  UNL1        0.2481
      5 N         144.6897  139.9108  156.2375 N.2     1  UNL1       -0.0293
      6 C         144.0215  138.5685  156.1966 C.2     1  UNL1        0.4105
      7 N         144.0935  137.4413  155.2096 N.2     1  UNL1        0.0120
      8 C         143.1990  136.3404  155.6973 C.2     1  UNL1        0.3751
      9 N         142.5741  136.7873  156.9857 N.2     1  UNL1       -0.0450
     10 C         143.0825  138.1644  157.2942 C.3     1  UNL1        0.3609
     11 N         139.9946  137.8900  161.7260 N.3     1  UNL1       -0.2646
     12 C         141.4761  137.7547  161.9185 C.3     1  UNL1        0.0941
     13 C         142.4150  138.1588  160.8209 C.3     1  UNL1        0.1080
     14 N         141.8726  138.6984  159.5306 N.pl3   1  UNL1       -0.3034
     15 C         140.3912  138.8337  159.3380 C.3     1  UNL1        0.1080
     16 C         139.4522  138.4295  160.4357 C.3     1  UNL1        0.0941
     17 C         139.0557  137.4858  162.8236 C.3     1  UNL1        0.1222
     18 C         138.3052  139.3369  167.7116 C.3     1  UNL1        0.0754
     19 C         138.4581  139.2652  166.2211 C.ar    1  UNL1        0.1546
     20 C         138.7254  138.0249  165.4209 C.ar    1  UNL1        0.0550
     21 C         138.8031  138.4143  163.9744 C.ar    1  UNL1        0.1165
     22 N         138.5839  139.8953  163.8807 N.ar    1  UNL1       -0.0803
     23 O         138.3707  140.4211  165.2692 O.2     1  UNL1       -0.3580
     24 C         142.9696  135.0237  155.0163 C.ar    1  UNL1        0.0894
     25 C         142.2894  134.9790  153.6801 C.ar    1  UNL1        0.0078
     26 C         142.0601  133.6622  152.9991 C.ar    1  UNL1        0.0015
     27 C         142.5107  132.3904  153.6543 C.ar    1  UNL1        0.0145
     28 C         143.1908  132.4352  154.9904 C.ar    1  UNL1        0.0482
     29 C         143.4202  133.7519  155.6714 C.ar    1  UNL1        0.0222
     30 N         143.6416  131.1634  155.6457 N.pl3   1  UNL1       -0.3046
     31 C         143.2718  130.8827  157.0720 C.3     1  UNL1        0.1081
     32 C         143.7225  129.6110  157.7273 C.3     1  UNL1        0.0938
     33 N         144.5429  128.6198  156.9563 N.3     1  UNL1       -0.2686
     34 C         144.9937  127.3479  157.6115 C.3     1  UNL1        0.0897
     35 C         144.9126  128.9005  155.5299 C.3     1  UNL1        0.0938
     36 C         144.4620  130.1722  154.8746 C.3     1  UNL1        0.1081
@<TRIPOS>BOND
     1    18    19    1
     2    19    20   ar
     3    20    21   ar
     4    21    17    1
     5    17    11    1
     6    11    12    1
     7    12    13    1
     8    13    14    1
     9    14     1    1
    10     1     2    2
    11     2     3    1
    12     2     4    1
    13     4     5    2
    14     5     6    1
    15     6     7    2
    16     7     8    1
    17     8    24    1
    18    24    25   ar
    19    25    26   ar
    20    26    27   ar
    21    27    28   ar
    22    28    30    1
    23    30    31    1
    24    31    32    1
    25    32    33    1
    26    33    34    1
    27    33    35    1
    28    35    36    1
    29    28    29   ar
    30     8     9    2
    31     9    10    1
    32    14    15    1
    33    15    16    1
    34    21    22   ar
    35    22    23   ar
    36    23    19   ar
    37    16    11    1
    38    10     1    1
    39    10     6    1
    40    29    24   ar
    41    36    30    1
@<TRIPOS>MOLECULE
*****
 36 41 0 0 0
SMALL
GASTEIGER

@<TRIPOS>ATOM
      1 C         139.8828  144.0942  156.4005 C.2     1  UNL1        0.1012
      2 C         140.7659  144.6751  155.3362 C.2     1  UNL1        0.1182
      3 CL        140.4505  144.4393  153.8888 Cl      1  UNL1       -0.0771
      4 C         141.9642  145.4918  155.7193 C.2     1  UNL1        0.2481
      5 N         142.2796  145.7277  157.1668 N.2     1  UNL1       -0.0293
      6 C         141.3965  145.1468  158.2310 C.2     1  UNL1        0.4105
      7 N         141.4551  145.2097  159.7285 N.2     1  UNL1        0.0120
      8 C         140.2928  144.4319  160.2709 C.2     1  UNL1        0.3751
      9 N         139.5160  143.8882  159.1086 N.2     1  UNL1       -0.0450
     10 C         140.1981  144.3301  157.8479 C.3     1  UNL1        0.3609
     11 N         136.2874  141.6442  155.2510 N.3     1  UNL1       -0.2646
     12 C         136.2091  143.1421  155.2398 C.3     1  UNL1        0.0941
     13 C         137.4074  143.9588  155.6229 C.3     1  UNL1        0.1080
     14 N         138.6843  143.2775  156.0173 N.pl3   1  UNL1       -0.3034
     15 C         138.7628  141.7796  156.0286 C.3     1  UNL1        0.1080
     16 C         137.5643  140.9630  155.6455 C.3     1  UNL1        0.0941
     17 C         135.0891  140.8275  154.8679 C.3     1  UNL1        0.1222
     18 C         130.6223  139.7941  157.4873 C.3     1  UNL1        0.0754
     19 C         132.0752  139.8898  157.1269 C.ar    1  UNL1        0.1546
     20 C         132.6336  140.4764  155.8643 C.ar    1  UNL1        0.0550
     21 C         134.1283  140.3648  155.9229 C.ar    1  UNL1        0.1165
     22 N         134.4936  139.7092  157.2217 N.ar    1  UNL1       -0.0803
     23 O         133.2248  139.4157  157.9658 O.2     1  UNL1       -0.3580
     24 C         139.9650  144.2326  161.7210 C.ar    1  UNL1        0.0894
     25 C         139.8920  145.4139  162.6426 C.ar    1  UNL1        0.0078
     26 C         139.5641  145.2145  164.0928 C.ar    1  UNL1        0.0015
     27 C         139.3093  143.8340  164.6213 C.ar    1  UNL1        0.0145
     28 C         139.3824  142.6528  163.6997 C.ar    1  UNL1        0.0482
     29 C         139.7102  142.8522  162.2496 C.ar    1  UNL1        0.0222
     30 N         139.1276  141.2723  164.2281 N.pl3   1  UNL1       -0.3046
     31 C         139.1311  141.0230  165.7073 C.3     1  UNL1        0.1081
     32 C         138.8764  139.6426  166.2358 C.3     1  UNL1        0.0938
     33 N         138.6181  138.5114  165.2852 N.3     1  UNL1       -0.2686
     34 C         138.3633  137.1308  165.8137 C.3     1  UNL1        0.0897
     35 C         138.6146  138.7607  163.8061 C.3     1  UNL1        0.0938
     36 C         138.8693  140.1411  163.2775 C.3     1  UNL1        0.1081
@<TRIPOS>BOND
     1    18    19    1
     2    19    20   ar
     3    20    21   ar
     4    21    17    1
     5    17    11    1
     6    11    12    1
     7    12    13    1
     8    13    14    1
     9    14     1    1
    10     1     2    2
    11     2     3    1
    12     2     4    1
    13     4     5    2
    14     5     6    1
    15     6     7    2
    16     7     8    1
    17     8    24    1
    18    24    25   ar
    19    25    26   ar
    20    26    27   ar
    21    27    28   ar
    22    28    30    1
    23    30    31    1
    24    31    32    1
    25    32    33    1
    26    33    34    1
    27    33    35    1
    28    35    36    1
    29    28    29   ar
    30     8     9    2
    31     9    10    1
    32    14    15    1
    33    15    16    1
    34    21    22   ar
    35    22    23   ar
    36    23    19   ar
    37    16    11    1
    38    10     1    1
    39    10     6    1
    40    29    24   ar
    41    36    30    1
@<TRIPOS>MOLECULE
*****
 36 41 0 0 0
SMALL
GASTEIGER

@<TRIPOS>ATOM
      1 C         139.2322  140.0918  157.0294 C.2     1  UNL1        0.1012
      2 C         138.7520  141.1804  156.1159 C.2     1  UNL1        0.1182
      3 CL        138.9878  141.0777  154.6381 Cl      1  UNL1       -0.0771
      4 C         138.0361  142.3715  156.6802 C.2     1  UNL1        0.2481
      5 N         137.8003  142.4743  158.1581 N.2     1  UNL1       -0.0293
      6 C         138.2805  141.3857  159.0715 C.2     1  UNL1        0.4105
      7 N         138.1934  141.2125  160.5589 N.2     1  UNL1        0.0120
      8 C         138.8556  139.9142  160.9139 C.2     1  UNL1        0.3751
      9 N         139.3519  139.2850  159.6459 N.2     1  UNL1       -0.0450
     10 C         138.9964  140.1945  158.5072 C.3     1  UNL1        0.3609
     11 N         141.3799  136.5181  155.3364 N.3     1  UNL1       -0.2646
     12 C         139.8815  136.5784  155.3020 C.3     1  UNL1        0.0941
     13 C         139.1656  137.7695  155.8663 C.3     1  UNL1        0.1080
     14 N         139.9481  138.9006  156.4651 N.pl3   1  UNL1       -0.3034
     15 C         141.4465  138.8404  156.4995 C.3     1  UNL1        0.1080
     16 C         142.1624  137.6492  155.9351 C.3     1  UNL1        0.0941
     17 C         142.0958  135.3270  154.7721 C.3     1  UNL1        0.1222
     18 C         145.1154  132.4450  158.0059 C.3     1  UNL1        0.0754
     19 C         143.9594  132.9112  157.1714 C.ar    1  UNL1        0.1546
     20 C         143.9125  134.1679  156.3537 C.ar    1  UNL1        0.0550
     21 C         142.5715  134.2359  155.6850 C.ar    1  UNL1        0.1165
     22 N         141.7897  133.0213  156.0894 N.ar    1  UNL1       -0.0803
     23 O         142.6474  132.2026  157.0081 O.2     1  UNL1       -0.3580
     24 C         138.9967  139.3449  162.2945 C.ar    1  UNL1        0.0894
     25 C         138.8389  137.8700  162.5174 C.ar    1  UNL1        0.0078
     26 C         138.9800  137.3009  163.8980 C.ar    1  UNL1        0.0015
     27 C         139.2790  138.2065  165.0558 C.ar    1  UNL1        0.0145
     28 C         139.4368  139.6815  164.8329 C.ar    1  UNL1        0.0482
     29 C         139.2957  140.2506  163.4522 C.ar    1  UNL1        0.0222
     30 N         139.7358  140.5872  165.9905 N.pl3   1  UNL1       -0.3046
     31 C         140.0793  142.0269  165.7471 C.3     1  UNL1        0.1081
     32 C         140.3783  142.9328  166.9047 C.3     1  UNL1        0.0938
     33 N         140.3338  142.3989  168.3057 N.3     1  UNL1       -0.2686
     34 C         140.6328  143.3046  169.4634 C.3     1  UNL1        0.0897
     35 C         139.9904  140.9591  168.5492 C.3     1  UNL1        0.0938
     36 C         139.6914  140.0533  167.3916 C.3     1  UNL1        0.1081
@<TRIPOS>BOND
     1    18    19    1
     2    19    20   ar
     3    20    21   ar
     4    21    17    1
     5    17    11    1
     6    11    12    1
     7    12    13    1
     8    13    14    1
     9    14     1    1
    10     1     2    2
    11     2     3    1
    12     2     4    1
    13     4     5    2
    14     5     6    1
    15     6     7    2
    16     7     8    1
    17     8    24    1
    18    24    25   ar
    19    25    26   ar
    20    26    27   ar
    21    27    28   ar
    22    28    30    1
    23    30    31    1
    24    31    32    1
    25    32    33    1
    26    33    34    1
    27    33    35    1
    28    35    36    1
    29    28    29   ar
    30     8     9    2
    31     9    10    1
    32    14    15    1
    33    15    16    1
    34    21    22   ar
    35    22    23   ar
    36    23    19   ar
    37    16    11    1
    38    10     1    1
    39    10     6    1
    40    29    24   ar
    41    36    30    1
