@<TRIPOS>MOLECULE
*****
 25 27 0 0 0
SMALL
GASTEIGER

@<TRIPOS>ATOM
      1 C         138.5636  140.6207  164.4233 C.ar    1  UNL1        0.0536
      2 C         138.0846  139.4585  165.2417 C.ar    1  UNL1        0.0042
      3 C         138.6243  139.2416  166.6243 C.ar    1  UNL1       -0.0028
      4 C         139.6432  140.1870  167.1885 C.ar    1  UNL1       -0.0061
      5 C         140.1222  141.3492  166.3701 C.ar    1  UNL1       -0.0028
      6 C         139.5824  141.5661  164.9875 C.ar    1  UNL1        0.0042
      7 N         140.0296  138.8949  159.5118 N.3     1  UNL1       -0.2711
      8 C         138.8212  139.7593  159.3055 C.3     1  UNL1        0.0939
      9 C         138.1526  140.4069  160.4818 C.3     1  UNL1        0.1110
     10 N         138.6924  140.1900  161.8644 N.am    1  UNL1       -0.2732
     11 C         138.0238  140.8376  163.0407 C.2     1  UNL1        0.2491
     12 O         136.8154  141.7020  162.8344 O.2     1  UNL1       -0.2699
     13 C         139.9008  139.3256  162.0707 C.3     1  UNL1        0.1110
     14 C         140.5694  138.6781  160.8944 C.3     1  UNL1        0.0939
     15 C         139.8781  137.7833  157.1685 C.3     1  UNL1        0.0173
     16 C         140.6982  138.2474  158.3355 C.3     1  UNL1        0.0577
     17 C         142.1868  138.0639  158.3263 C.3     1  UNL1        0.0173
     18 C         140.1829  139.9701  168.5712 C.3     1  UNL1        0.0991
     19 N         141.0853  140.9941  169.1932 N.3     1  UNL1       -0.2688
     20 C         142.5606  140.7382  169.2829 C.3     1  UNL1        0.0752
     21 C         143.4630  141.7623  169.9050 C.3     1  UNL1        0.0526
     22 C         142.8901  143.0423  170.4373 C.3     1  UNL1        0.1638
     23 F         143.7925  144.0664  171.0593 F       1  UNL1       -0.2372
     24 C         141.4148  143.2983  170.3476 C.3     1  UNL1        0.0526
     25 C         140.5124  142.2741  169.7255 C.3     1  UNL1        0.0752
@<TRIPOS>BOND
     1    15    16    1
     2    16    17    1
     3    16     7    1
     4     7     8    1
     5     8     9    1
     6     9    10    1
     7    10    11   am
     8    11    12    2
     9    11     1    1
    10     1     2   ar
    11     2     3   ar
    12     3     4   ar
    13     4    18    1
    14    18    19    1
    15    19    20    1
    16    20    21    1
    17    21    22    1
    18    22    23    1
    19    22    24    1
    20    24    25    1
    21     4     5   ar
    22     5     6   ar
    23    10    13    1
    24    13    14    1
    25    14     7    1
    26     6     1   ar
    27    25    19    1
@<TRIPOS>MOLECULE
*****
 25 27 0 0 0
SMALL
GASTEIGER

@<TRIPOS>ATOM
      1 C         138.7445  138.6987  165.0462 C.ar    1  UNL1        0.0536
      2 C         139.7190  137.6795  164.5343 C.ar    1  UNL1        0.0042
      3 C         139.9768  137.5620  163.0614 C.ar    1  UNL1       -0.0028
      4 C         139.2604  138.4636  162.1002 C.ar    1  UNL1       -0.0061
      5 C         138.2860  139.4827  162.6120 C.ar    1  UNL1       -0.0028
      6 C         138.0281  139.6003  164.0851 C.ar    1  UNL1        0.0042
      7 N         140.5729  141.9981  168.9219 N.3     1  UNL1       -0.2711
      8 C         139.6196  141.0549  169.5939 C.3     1  UNL1        0.0939
      9 C         138.9242  139.9943  168.7930 C.3     1  UNL1        0.1110
     10 N         139.1821  139.8768  167.3201 N.am    1  UNL1       -0.2732
     11 C         138.4867  138.8162  166.5192 C.2     1  UNL1        0.2491
     12 O         137.5334  137.8730  167.1912 O.2     1  UNL1       -0.2699
     13 C         140.1354  140.8199  166.6480 C.3     1  UNL1        0.1110
     14 C         140.8308  141.8806  167.4489 C.3     1  UNL1        0.0939
     15 C         142.7029  142.8777  170.1216 C.3     1  UNL1        0.0173
     16 C         141.2683  143.0587  169.7228 C.3     1  UNL1        0.0577
     17 C         140.5291  144.3004  170.1250 C.3     1  UNL1        0.0173
     18 C         139.5183  138.3461  160.6272 C.3     1  UNL1        0.0991
     19 N         140.7793  138.9067  160.0395 N.3     1  UNL1       -0.2688
     20 C         141.4973  140.0260  160.7335 C.3     1  UNL1        0.0752
     21 C         142.7583  140.5866  160.1458 C.3     1  UNL1        0.0526
     22 C         143.3015  140.0279  158.8641 C.3     1  UNL1        0.1638
     23 F         144.5626  140.5885  158.2764 F       1  UNL1       -0.2372
     24 C         142.5836  138.9085  158.1701 C.3     1  UNL1        0.0526
     25 C         141.3225  138.3479  158.7578 C.3     1  UNL1        0.0752
@<TRIPOS>BOND
     1    15    16    1
     2    16    17    1
     3    16     7    1
     4     7     8    1
     5     8     9    1
     6     9    10    1
     7    10    11   am
     8    11    12    2
     9    11     1    1
    10     1     2   ar
    11     2     3   ar
    12     3     4   ar
    13     4    18    1
    14    18    19    1
    15    19    20    1
    16    20    21    1
    17    21    22    1
    18    22    23    1
    19    22    24    1
    20    24    25    1
    21     4     5   ar
    22     5     6   ar
    23    10    13    1
    24    13    14    1
    25    14     7    1
    26     6     1   ar
    27    25    19    1
@<TRIPOS>MOLECULE
*****
 25 27 0 0 0
SMALL
GASTEIGER

@<TRIPOS>ATOM
      1 C         139.9193  138.7124  164.3845 C.ar    1  UNL1        0.0536
      2 C         138.6704  138.3865  165.1490 C.ar    1  UNL1        0.0042
      3 C         138.4959  138.8910  166.5507 C.ar    1  UNL1       -0.0028
      4 C         139.5702  139.7215  167.1881 C.ar    1  UNL1       -0.0061
      5 C         140.8189  140.0475  166.4237 C.ar    1  UNL1       -0.0028
      6 C         140.9935  139.5429  165.0219 C.ar    1  UNL1        0.0042
      7 N         138.7179  140.7084  159.5037 N.3     1  UNL1       -0.2711
      8 C         139.3510  139.3703  159.2616 C.3     1  UNL1        0.0939
      9 C         139.8096  138.5368  160.4213 C.3     1  UNL1        0.1110
     10 N         139.6351  139.0414  161.8231 N.am    1  UNL1       -0.2732
     11 C         140.0938  138.2078  162.9828 C.2     1  UNL1        0.2491
     12 O         140.7269  136.8698  162.7407 O.2     1  UNL1       -0.2699
     13 C         139.0020  140.3794  162.0651 C.3     1  UNL1        0.1110
     14 C         138.5434  141.2129  160.9054 C.3     1  UNL1        0.0939
     15 C         137.2928  140.9735  157.3476 C.3     1  UNL1        0.0173
     16 C         138.2592  141.5419  158.3440 C.3     1  UNL1        0.0577
     17 C         138.7671  142.9438  158.1806 C.3     1  UNL1        0.0173
     18 C         139.3956  140.2261  168.5899 C.3     1  UNL1        0.0991
     19 N         140.4377  141.1141  169.2026 N.3     1  UNL1       -0.2688
     20 C         141.7081  140.5218  169.7367 C.3     1  UNL1        0.0752
     21 C         142.7501  141.4098  170.3493 C.3     1  UNL1        0.0526
     22 C         142.5219  142.8903  170.4280 C.3     1  UNL1        0.1638
     23 F         143.5640  143.7783  171.0406 F       1  UNL1       -0.2372
     24 C         141.2515  143.4827  169.8939 C.3     1  UNL1        0.0526
     25 C         140.2094  142.5945  169.2811 C.3     1  UNL1        0.0752
@<TRIPOS>BOND
     1    15    16    1
     2    16    17    1
     3    16     7    1
     4     7     8    1
     5     8     9    1
     6     9    10    1
     7    10    11   am
     8    11    12    2
     9    11     1    1
    10     1     2   ar
    11     2     3   ar
    12     3     4   ar
    13     4    18    1
    14    18    19    1
    15    19    20    1
    16    20    21    1
    17    21    22    1
    18    22    23    1
    19    22    24    1
    20    24    25    1
    21     4     5   ar
    22     5     6   ar
    23    10    13    1
    24    13    14    1
    25    14     7    1
    26     6     1   ar
    27    25    19    1
@<TRIPOS>MOLECULE
*****
 25 27 0 0 0
SMALL
GASTEIGER

@<TRIPOS>ATOM
      1 C         143.8359  140.3788  163.9652 C.ar    1  UNL1        0.0536
      2 C         142.9745  141.3579  164.7065 C.ar    1  UNL1        0.0042
      3 C         142.5189  141.0496  166.1020 C.ar    1  UNL1       -0.0028
      4 C         142.9246  139.7622  166.7562 C.ar    1  UNL1       -0.0061
      5 C         143.7859  138.7831  166.0149 C.ar    1  UNL1       -0.0028
      6 C         144.2415  139.0914  164.6194 C.ar    1  UNL1        0.0042
      7 N         142.0137  139.0577  159.0474 N.3     1  UNL1       -0.2711
      8 C         143.2286  139.9091  158.8261 C.3     1  UNL1        0.0939
      9 C         143.9879  140.4523  160.0002 C.3     1  UNL1        0.1110
     10 N         143.5322  140.1440  161.3956 N.am    1  UNL1       -0.2732
     11 C         144.2915  140.6871  162.5698 C.2     1  UNL1        0.2491
     12 O         145.5064  141.5386  162.3484 O.2     1  UNL1       -0.2699
     13 C         142.3174  139.2925  161.6170 C.3     1  UNL1        0.1110
     14 C         141.5581  138.7493  160.4429 C.3     1  UNL1        0.0939
     15 C         141.9583  138.2761  156.5704 C.3     1  UNL1        0.0173
     16 C         141.2545  138.5145  157.8733 C.3     1  UNL1        0.0577
     17 C         139.7915  138.2098  158.0022 C.3     1  UNL1        0.0173
     18 C         142.4689  139.4539  168.1517 C.3     1  UNL1        0.0991
     19 N         141.6485  140.4541  168.9109 N.3     1  UNL1       -0.2688
     20 C         142.2837  141.7145  169.4187 C.3     1  UNL1        0.0752
     21 C         141.4632  142.7147  170.1779 C.3     1  UNL1        0.0526
     22 C         140.0075  142.4544  170.4294 C.3     1  UNL1        0.1638
     23 F         139.1870  143.4546  171.1886 F       1  UNL1       -0.2372
     24 C         139.3723  141.1940  169.9216 C.3     1  UNL1        0.0526
     25 C         140.1928  140.1938  169.1623 C.3     1  UNL1        0.0752
@<TRIPOS>BOND
     1    15    16    1
     2    16    17    1
     3    16     7    1
     4     7     8    1
     5     8     9    1
     6     9    10    1
     7    10    11   am
     8    11    12    2
     9    11     1    1
    10     1     2   ar
    11     2     3   ar
    12     3     4   ar
    13     4    18    1
    14    18    19    1
    15    19    20    1
    16    20    21    1
    17    21    22    1
    18    22    23    1
    19    22    24    1
    20    24    25    1
    21     4     5   ar
    22     5     6   ar
    23    10    13    1
    24    13    14    1
    25    14     7    1
    26     6     1   ar
    27    25    19    1
@<TRIPOS>MOLECULE
*****
 25 27 0 0 0
SMALL
GASTEIGER

@<TRIPOS>ATOM
      1 C         138.9594  141.8005  163.3793 C.ar    1  UNL1        0.0536
      2 C         140.2578  142.2601  163.9736 C.ar    1  UNL1        0.0042
      3 C         140.6798  141.7671  165.3259 C.ar    1  UNL1       -0.0028
      4 C         139.8035  140.8145  166.0840 C.ar    1  UNL1       -0.0061
      5 C         138.5053  140.3549  165.4898 C.ar    1  UNL1       -0.0028
      6 C         138.0831  140.8479  164.1374 C.ar    1  UNL1        0.0042
      7 N         139.3113  139.7821  158.3741 N.3     1  UNL1       -0.2711
      8 C         138.6313  141.1123  158.2394 C.3     1  UNL1        0.0939
      9 C         138.3733  141.9494  159.4571 C.3     1  UNL1        0.1110
     10 N         138.7953  141.4564  160.8094 N.am    1  UNL1       -0.2732
     11 C         138.5374  142.2935  162.0270 C.2     1  UNL1        0.2491
     12 O         137.8573  143.6237  161.8923 O.2     1  UNL1       -0.2699
     13 C         139.4753  140.1262  160.9440 C.3     1  UNL1        0.1110
     14 C         139.7333  139.2891  159.7264 C.3     1  UNL1        0.0939
     15 C         138.9074  139.2896  155.8553 C.3     1  UNL1        0.0173
     16 C         139.5693  138.9449  157.1565 C.3     1  UNL1        0.0577
     17 C         140.4891  137.7631  157.2400 C.3     1  UNL1        0.0173
     18 C         140.2257  140.3215  167.4364 C.3     1  UNL1        0.0991
     19 N         141.0346  141.2059  168.3382 N.3     1  UNL1       -0.2688
     20 C         140.3935  142.3895  169.0001 C.3     1  UNL1        0.0752
     21 C         141.2024  143.2739  169.9019 C.3     1  UNL1        0.0526
     22 C         142.6527  142.9748  170.1418 C.3     1  UNL1        0.1638
     23 F         143.4616  143.8592  171.0437 F       1  UNL1       -0.2372
     24 C         143.2938  141.7912  169.4799 C.3     1  UNL1        0.0526
     25 C         142.4848  140.9068  168.5781 C.3     1  UNL1        0.0752
@<TRIPOS>BOND
     1    15    16    1
     2    16    17    1
     3    16     7    1
     4     7     8    1
     5     8     9    1
     6     9    10    1
     7    10    11   am
     8    11    12    2
     9    11     1    1
    10     1     2   ar
    11     2     3   ar
    12     3     4   ar
    13     4    18    1
    14    18    19    1
    15    19    20    1
    16    20    21    1
    17    21    22    1
    18    22    23    1
    19    22    24    1
    20    24    25    1
    21     4     5   ar
    22     5     6   ar
    23    10    13    1
    24    13    14    1
    25    14     7    1
    26     6     1   ar
    27    25    19    1
@<TRIPOS>MOLECULE
*****
 25 27 0 0 0
SMALL
GASTEIGER

@<TRIPOS>ATOM
      1 C         143.6702  140.6748  162.7549 C.ar    1  UNL1        0.0536
      2 C         142.3339  141.0398  163.3305 C.ar    1  UNL1        0.0042
      3 C         141.9777  140.6185  164.7253 C.ar    1  UNL1       -0.0028
      4 C         142.9577  139.8323  165.5447 C.ar    1  UNL1       -0.0061
      5 C         144.2940  139.4673  164.9692 C.ar    1  UNL1       -0.0028
      6 C         144.6502  139.8886  163.5743 C.ar    1  UNL1        0.0042
      7 N         143.0836  138.3975  157.8846 N.3     1  UNL1       -0.2711
      8 C         143.7541  139.7183  157.6483 C.3     1  UNL1        0.0939
      9 C         144.0683  140.6178  158.8068 C.3     1  UNL1        0.1110
     10 N         143.7121  140.1965  160.2016 N.am    1  UNL1       -0.2732
     11 C         144.0264  141.0961  161.3601 C.2     1  UNL1        0.2491
     12 O         144.6969  142.4169  161.1237 O.2     1  UNL1       -0.2699
     13 C         143.0417  138.8757  160.4380 C.3     1  UNL1        0.1110
     14 C         142.7274  137.9762  159.2795 C.3     1  UNL1        0.0939
     15 C         143.8242  137.1959  155.7034 C.3     1  UNL1        0.0173
     16 C         142.7693  137.4979  156.7262 C.3     1  UNL1        0.0577
     17 C         141.4002  136.9004  156.5904 C.3     1  UNL1        0.0173
     18 C         142.6015  139.4110  166.9396 C.3     1  UNL1        0.0991
     19 N         141.8304  140.3400  167.8297 N.3     1  UNL1       -0.2688
     20 C         142.4297  141.6511  168.2444 C.3     1  UNL1        0.0752
     21 C         141.6587  142.5801  169.1345 C.3     1  UNL1        0.0526
     22 C         140.2883  142.1980  169.6101 C.3     1  UNL1        0.1638
     23 F         139.5173  143.1270  170.5002 F       1  UNL1       -0.2372
     24 C         139.6890  140.8870  169.1954 C.3     1  UNL1        0.0526
     25 C         140.4601  139.9580  168.3052 C.3     1  UNL1        0.0752
@<TRIPOS>BOND
     1    15    16    1
     2    16    17    1
     3    16     7    1
     4     7     8    1
     5     8     9    1
     6     9    10    1
     7    10    11   am
     8    11    12    2
     9    11     1    1
    10     1     2   ar
    11     2     3   ar
    12     3     4   ar
    13     4    18    1
    14    18    19    1
    15    19    20    1
    16    20    21    1
    17    21    22    1
    18    22    23    1
    19    22    24    1
    20    24    25    1
    21     4     5   ar
    22     5     6   ar
    23    10    13    1
    24    13    14    1
    25    14     7    1
    26     6     1   ar
    27    25    19    1
@<TRIPOS>MOLECULE
*****
 25 27 0 0 0
SMALL
GASTEIGER

@<TRIPOS>ATOM
      1 C         139.9888  144.3994  162.5630 C.ar    1  UNL1        0.0536
      2 C         141.0995  144.5180  163.5642 C.ar    1  UNL1        0.0042
      3 C         141.1017  143.6508  164.7881 C.ar    1  UNL1       -0.0028
      4 C         139.9933  142.6651  165.0109 C.ar    1  UNL1       -0.0061
      5 C         138.8826  142.5465  164.0097 C.ar    1  UNL1       -0.0028
      6 C         138.8804  143.4136  162.7857 C.ar    1  UNL1        0.0042
      7 N         142.2626  143.9901  157.6730 N.3     1  UNL1       -0.2711
      8 C         141.5017  145.2827  157.6711 C.3     1  UNL1        0.0939
      9 C         140.7431  145.7082  158.8931 C.3     1  UNL1        0.1110
     10 N         140.7453  144.8410  160.1170 N.am    1  UNL1       -0.2732
     11 C         139.9866  145.2665  161.3390 C.2     1  UNL1        0.2491
     12 O         139.2257  146.5592  161.3372 O.2     1  UNL1       -0.2699
     13 C         141.5062  143.5484  160.1189 C.3     1  UNL1        0.1110
     14 C         142.2649  143.1229  158.8969 C.3     1  UNL1        0.0939
     15 C         142.7772  144.2510  155.1398 C.3     1  UNL1        0.0173
     16 C         143.0213  143.5646  156.4509 C.3     1  UNL1        0.0577
     17 C         144.0241  142.4527  156.5401 C.3     1  UNL1        0.0173
     18 C         139.9955  141.7979  166.2349 C.3     1  UNL1        0.0991
     19 N         141.0429  140.7370  166.4004 N.3     1  UNL1       -0.2688
     20 C         141.4529  139.8981  165.2265 C.3     1  UNL1        0.0752
     21 C         142.5003  138.8372  165.3920 C.3     1  UNL1        0.0526
     22 C         143.1377  138.6151  166.7317 C.3     1  UNL1        0.1638
     23 F         144.1850  137.5542  166.8972 F       1  UNL1       -0.2372
     24 C         142.7276  139.4540  167.9056 C.3     1  UNL1        0.0526
     25 C         141.6802  140.5149  167.7400 C.3     1  UNL1        0.0752
@<TRIPOS>BOND
     1    15    16    1
     2    16    17    1
     3    16     7    1
     4     7     8    1
     5     8     9    1
     6     9    10    1
     7    10    11   am
     8    11    12    2
     9    11     1    1
    10     1     2   ar
    11     2     3   ar
    12     3     4   ar
    13     4    18    1
    14    18    19    1
    15    19    20    1
    16    20    21    1
    17    21    22    1
    18    22    23    1
    19    22    24    1
    20    24    25    1
    21     4     5   ar
    22     5     6   ar
    23    10    13    1
    24    13    14    1
    25    14     7    1
    26     6     1   ar
    27    25    19    1
@<TRIPOS>MOLECULE
*****
 25 27 0 0 0
SMALL
GASTEIGER

@<TRIPOS>ATOM
      1 C         140.1657  138.4935  157.9395 C.ar    1  UNL1        0.0536
      2 C         139.6130  137.6529  156.8269 C.ar    1  UNL1        0.0042
      3 C         140.5147  136.7234  156.0700 C.ar    1  UNL1       -0.0028
      4 C         141.9692  136.6344  156.4257 C.ar    1  UNL1       -0.0061
      5 C         142.5220  137.4750  157.5383 C.ar    1  UNL1       -0.0028
      6 C         141.6202  138.4045  158.2952 C.ar    1  UNL1        0.0042
      7 N         138.7508  138.9374  163.1405 N.3     1  UNL1       -0.2711
      8 C         138.0201  140.0287  162.4160 C.3     1  UNL1        0.0939
      9 C         138.1912  140.1906  160.9346 C.3     1  UNL1        0.1110
     10 N         139.0929  139.2611  160.1778 N.am    1  UNL1       -0.2732
     11 C         139.2640  139.4230  158.6964 C.2     1  UNL1        0.2491
     12 O         138.5334  140.5144  157.9718 O.2     1  UNL1       -0.2699
     13 C         139.8236  138.1697  160.9023 C.3     1  UNL1        0.1110
     14 C         139.6525  138.0079  162.3837 C.3     1  UNL1        0.0939
     15 C         138.7973  137.4356  165.2601 C.3     1  UNL1        0.0173
     16 C         138.5797  138.7755  164.6219 C.3     1  UNL1        0.0577
     17 C         138.1910  139.9535  165.4652 C.3     1  UNL1        0.0173
     18 C         142.8709  135.7048  155.6688 C.3     1  UNL1        0.0991
     19 N         142.9716  134.2637  156.0723 N.3     1  UNL1       -0.2688
     20 C         144.0217  133.8307  157.0520 C.3     1  UNL1        0.0752
     21 C         144.1224  132.3896  157.4555 C.3     1  UNL1        0.0526
     22 C         143.1730  131.3813  156.8793 C.3     1  UNL1        0.1638
     23 F         143.2736  129.9401  157.2828 F       1  UNL1       -0.2372
     24 C         142.1229  131.8142  155.8996 C.3     1  UNL1        0.0526
     25 C         142.0222  133.2555  155.4961 C.3     1  UNL1        0.0752
@<TRIPOS>BOND
     1    15    16    1
     2    16    17    1
     3    16     7    1
     4     7     8    1
     5     8     9    1
     6     9    10    1
     7    10    11   am
     8    11    12    2
     9    11     1    1
    10     1     2   ar
    11     2     3   ar
    12     3     4   ar
    13     4    18    1
    14    18    19    1
    15    19    20    1
    16    20    21    1
    17    21    22    1
    18    22    23    1
    19    22    24    1
    20    24    25    1
    21     4     5   ar
    22     5     6   ar
    23    10    13    1
    24    13    14    1
    25    14     7    1
    26     6     1   ar
    27    25    19    1
@<TRIPOS>MOLECULE
*****
 25 27 0 0 0
SMALL
GASTEIGER

@<TRIPOS>ATOM
      1 C         143.5723  138.7495  164.9293 C.ar    1  UNL1        0.0536
      2 C         144.6415  139.6200  164.3383 C.ar    1  UNL1        0.0042
      3 C         144.6777  139.8634  162.8587 C.ar    1  UNL1       -0.0028
      4 C         143.6447  139.2364  161.9699 C.ar    1  UNL1       -0.0061
      5 C         142.5756  138.3660  162.5608 C.ar    1  UNL1       -0.0028
      6 C         142.5393  138.1225  164.0405 C.ar    1  UNL1        0.0042
      7 N         141.4388  141.4231  169.1185 N.3     1  UNL1       -0.2711
      8 C         142.1017  140.2073  169.6950 C.3     1  UNL1        0.0939
      9 C         142.8008  139.2350  168.7918 C.3     1  UNL1        0.1110
     10 N         142.8370  139.4784  167.3121 N.am    1  UNL1       -0.2732
     11 C         143.5361  138.5061  166.4089 C.2     1  UNL1        0.2491
     12 O         144.1990  137.2903  166.9853 O.2     1  UNL1       -0.2699
     13 C         142.1741  140.6942  166.7357 C.3     1  UNL1        0.1110
     14 C         141.4750  141.6666  167.6389 C.3     1  UNL1        0.0939
     15 C         140.3457  143.7479  169.5064 C.3     1  UNL1        0.0173
     16 C         140.7397  142.3955  170.0217 C.3     1  UNL1        0.0577
     17 C         140.4346  142.0154  171.4403 C.3     1  UNL1        0.0173
     18 C         143.6810  139.4799  160.4902 C.3     1  UNL1        0.0991
     19 N         142.4018  139.5489  159.7099 N.3     1  UNL1       -0.2688
     20 C         141.4740  140.7134  159.8922 C.3     1  UNL1        0.0752
     21 C         140.1948  140.7824  159.1120 C.3     1  UNL1        0.0526
     22 C         139.8434  139.6869  158.1493 C.3     1  UNL1        0.1638
     23 F         138.5642  139.7559  157.3690 F       1  UNL1       -0.2372
     24 C         140.7712  138.5225  157.9670 C.3     1  UNL1        0.0526
     25 C         142.0505  138.4535  158.7474 C.3     1  UNL1        0.0752
@<TRIPOS>BOND
     1    15    16    1
     2    16    17    1
     3    16     7    1
     4     7     8    1
     5     8     9    1
     6     9    10    1
     7    10    11   am
     8    11    12    2
     9    11     1    1
    10     1     2   ar
    11     2     3   ar
    12     3     4   ar
    13     4    18    1
    14    18    19    1
    15    19    20    1
    16    20    21    1
    17    21    22    1
    18    22    23    1
    19    22    24    1
    20    24    25    1
    21     4     5   ar
    22     5     6   ar
    23    10    13    1
    24    13    14    1
    25    14     7    1
    26     6     1   ar
    27    25    19    1
