@<TRIPOS>MOLECULE
*****
 26 29 0 0 0
SMALL
GASTEIGER

@<TRIPOS>ATOM
      1 C         139.2756  141.8781  164.6275 C.ar    1  UNL1        0.0182
      2 C         140.1352  141.3960  163.4968 C.ar    1  UNL1        0.0023
      3 C         139.8064  141.7851  162.0860 C.ar    1  UNL1        0.0367
      4 C         138.6180  142.6564  161.8059 C.ar    1  UNL1        0.1385
      5 C         137.7584  143.1386  162.9367 C.ar    1  UNL1        0.0367
      6 C         138.0872  142.7494  164.3475 C.ar    1  UNL1        0.0023
      7 C         138.2093  139.3145  165.7636 C.3     1  UNL1        0.0162
      8 C         139.0713  140.2071  166.6065 C.3     1  UNL1        0.0963
      9 S         139.4001  139.8179  168.0172 S.3     1  UNL1       -0.1075
     10 C         140.2621  140.7105  168.8601 C.ar    1  UNL1        0.0593
     11 C         140.5908  140.3213  170.2708 C.ar    1  UNL1        0.0092
     12 C         141.4528  141.2139  171.1136 C.ar    1  UNL1        0.0007
     13 C         141.9860  142.4957  170.5455 C.ar    1  UNL1        0.0031
     14 C         141.6572  142.8849  169.1348 C.ar    1  UNL1        0.0374
     15 C         140.7952  141.9923  168.2920 C.ar    1  UNL1        0.1444
     16 O         140.4664  142.3815  166.8812 O.3     1  UNL1       -0.4734
     17 C         139.6044  141.4889  166.0384 C.3     1  UNL1        0.1982
     18 O         138.2892  143.0456  160.3951 O.3     1  UNL1       -0.4754
     19 C         139.3917  143.2802  159.4054 C.3     1  UNL1        0.2068
     20 C         140.0699  144.6166  159.3409 C.3     1  UNL1        0.0646
     21 C         141.4396  144.7917  159.9268 C.3     1  UNL1        0.0759
     22 N         141.6293  144.7555  161.4143 N.3     1  UNL1       -0.2726
     23 C         142.7402  144.0610  162.1448 C.3     1  UNL1        0.0721
     24 C         142.5390  144.2838  163.6145 C.3     1  UNL1        0.0188
     25 C         141.3037  145.1160  163.7923 C.3     1  UNL1        0.0188
     26 C         140.7415  145.4076  162.4325 C.3     1  UNL1        0.0721
@<TRIPOS>BOND
     1     8     7    1
     2     8     9    1
     3     9    10    1
     4    10    11   ar
     5    11    12   ar
     6    12    13   ar
     7    13    14   ar
     8    14    15   ar
     9    15    16    1
    10    16    17    1
    11    17     1    1
    12     1     2   ar
    13     2     3   ar
    14     3     4   ar
    15     4    18    1
    16    18    19    1
    17    19    20    1
    18    20    21    1
    19    21    22    1
    20    22    23    1
    21    23    24    1
    22    24    25    1
    23    25    26    1
    24     4     5   ar
    25     5     6   ar
    26    17     8    1
    27     6     1   ar
    28    15    10   ar
    29    26    22    1
@<TRIPOS>MOLECULE
*****
 26 29 0 0 0
SMALL
GASTEIGER

@<TRIPOS>ATOM
      1 C         140.8594  139.4204  165.0093 C.ar    1  UNL1        0.0182
      2 C         141.1195  137.9584  164.7975 C.ar    1  UNL1        0.0023
      3 C         141.1307  137.3922  163.4085 C.ar    1  UNL1        0.0367
      4 C         140.8818  138.2879  162.2314 C.ar    1  UNL1        0.1385
      5 C         140.6217  139.7499  162.4432 C.ar    1  UNL1        0.0367
      6 C         140.6105  140.3162  163.8322 C.ar    1  UNL1        0.0023
      7 C         138.4573  139.0385  166.7655 C.3     1  UNL1        0.0162
      8 C         139.6472  139.7957  167.2764 C.3     1  UNL1        0.0963
      9 S         139.6359  140.3619  168.6654 S.3     1  UNL1       -0.1075
     10 C         140.8258  141.1192  169.1763 C.ar    1  UNL1        0.0593
     11 C         140.8146  141.6854  170.5652 C.ar    1  UNL1        0.0092
     12 C         142.0043  142.4425  171.0761 C.ar    1  UNL1        0.0007
     13 C         143.2054  142.6335  170.1980 C.ar    1  UNL1        0.0031
     14 C         143.2166  142.0673  168.8090 C.ar    1  UNL1        0.0374
     15 C         142.0268  141.3101  168.2982 C.ar    1  UNL1        0.1444
     16 O         142.0380  140.7439  166.9092 O.3     1  UNL1       -0.4734
     17 C         140.8482  139.9867  166.3983 C.3     1  UNL1        0.1982
     18 O         140.8930  137.7217  160.8424 O.3     1  UNL1       -0.4754
     19 C         141.9868  138.0985  159.8877 C.3     1  UNL1        0.2068
     20 C         143.3943  138.2526  160.3828 C.3     1  UNL1        0.0646
     21 C         143.9683  139.6218  160.5970 C.3     1  UNL1        0.0759
     22 N         144.3872  140.0527  161.9713 N.3     1  UNL1       -0.2726
     23 C         144.3223  139.2172  163.2155 C.3     1  UNL1        0.0721
     24 C         144.8395  140.0430  164.3559 C.3     1  UNL1        0.0188
     25 C         145.2242  141.3888  163.8167 C.3     1  UNL1        0.0188
     26 C         144.9446  141.3948  162.3429 C.3     1  UNL1        0.0721
@<TRIPOS>BOND
     1     8     7    1
     2     8     9    1
     3     9    10    1
     4    10    11   ar
     5    11    12   ar
     6    12    13   ar
     7    13    14   ar
     8    14    15   ar
     9    15    16    1
    10    16    17    1
    11    17     1    1
    12     1     2   ar
    13     2     3   ar
    14     3     4   ar
    15     4    18    1
    16    18    19    1
    17    19    20    1
    18    20    21    1
    19    21    22    1
    20    22    23    1
    21    23    24    1
    22    24    25    1
    23    25    26    1
    24     4     5   ar
    25     5     6   ar
    26    17     8    1
    27     6     1   ar
    28    15    10   ar
    29    26    22    1
@<TRIPOS>MOLECULE
*****
 26 29 0 0 0
SMALL
GASTEIGER

@<TRIPOS>ATOM
      1 C         139.5746  141.7454  164.4595 C.ar    1  UNL1        0.0182
      2 C         140.4376  141.5363  163.2506 C.ar    1  UNL1        0.0023
      3 C         139.9475  141.9581  161.8972 C.ar    1  UNL1        0.0367
      4 C         138.5944  142.5891  161.7526 C.ar    1  UNL1        0.1385
      5 C         137.7314  142.7982  162.9616 C.ar    1  UNL1        0.0367
      6 C         138.2215  142.3764  164.3150 C.ar    1  UNL1        0.0023
      7 C         138.1760  139.5442  165.9423 C.3     1  UNL1        0.0162
      8 C         139.3655  140.2229  166.5544 C.3     1  UNL1        0.0963
      9 S         139.8555  139.8010  167.9078 S.3     1  UNL1       -0.1075
     10 C         141.0450  140.4798  168.5199 C.ar    1  UNL1        0.0593
     11 C         141.5351  140.0579  169.8733 C.ar    1  UNL1        0.0092
     12 C         142.7245  140.7366  170.4853 C.ar    1  UNL1        0.0007
     13 C         143.4238  141.8372  169.7439 C.ar    1  UNL1        0.0031
     14 C         142.9337  142.2591  168.3905 C.ar    1  UNL1        0.0374
     15 C         141.7443  141.5804  167.7785 C.ar    1  UNL1        0.1444
     16 O         141.2542  142.0022  166.4250 O.3     1  UNL1       -0.4734
     17 C         140.0648  141.3235  165.8130 C.3     1  UNL1        0.1982
     18 O         138.1043  143.0110  160.3992 O.3     1  UNL1       -0.4754
     19 C         138.5306  142.2526  159.1772 C.3     1  UNL1        0.2068
     20 C         137.9813  140.8815  158.9159 C.3     1  UNL1        0.0646
     21 C         138.8634  139.6781  159.0708 C.3     1  UNL1        0.0759
     22 N         138.9869  139.0056  160.4059 N.3     1  UNL1       -0.2726
     23 C         140.2260  138.3674  160.9603 C.3     1  UNL1        0.0721
     24 C         139.8980  137.8205  162.3180 C.3     1  UNL1        0.0188
     25 C         138.4562  138.1208  162.6028 C.3     1  UNL1        0.0188
     26 C         137.8931  138.8533  161.4210 C.3     1  UNL1        0.0721
@<TRIPOS>BOND
     1     8     7    1
     2     8     9    1
     3     9    10    1
     4    10    11   ar
     5    11    12   ar
     6    12    13   ar
     7    13    14   ar
     8    14    15   ar
     9    15    16    1
    10    16    17    1
    11    17     1    1
    12     1     2   ar
    13     2     3   ar
    14     3     4   ar
    15     4    18    1
    16    18    19    1
    17    19    20    1
    18    20    21    1
    19    21    22    1
    20    22    23    1
    21    23    24    1
    22    24    25    1
    23    25    26    1
    24     4     5   ar
    25     5     6   ar
    26    17     8    1
    27     6     1   ar
    28    15    10   ar
    29    26    22    1
@<TRIPOS>MOLECULE
*****
 26 29 0 0 0
SMALL
GASTEIGER

@<TRIPOS>ATOM
      1 C         142.9713  140.2108  164.8869 C.ar    1  UNL1        0.0182
      2 C         144.3516  140.6180  164.4637 C.ar    1  UNL1        0.0023
      3 C         144.7832  140.4366  163.0386 C.ar    1  UNL1        0.0367
      4 C         143.8346  139.8481  162.0368 C.ar    1  UNL1        0.1385
      5 C         142.4544  139.4409  162.4600 C.ar    1  UNL1        0.0367
      6 C         142.0227  139.6222  163.8850 C.ar    1  UNL1        0.0023
      7 C         143.5883  138.0947  166.9219 C.3     1  UNL1        0.0162
      8 C         142.8482  139.3342  167.3295 C.3     1  UNL1        0.0963
      9 S         142.4166  139.5155  168.7545 S.3     1  UNL1       -0.1075
     10 C         141.6764  140.7550  169.1621 C.ar    1  UNL1        0.0593
     11 C         141.2448  140.9363  170.5872 C.ar    1  UNL1        0.0092
     12 C         140.5047  142.1757  170.9947 C.ar    1  UNL1        0.0007
     13 C         140.1962  143.2337  169.9771 C.ar    1  UNL1        0.0031
     14 C         140.6278  143.0524  168.5521 C.ar    1  UNL1        0.0374
     15 C         141.3679  141.8130  168.1446 C.ar    1  UNL1        0.1444
     16 O         141.7995  141.6316  166.7195 O.3     1  UNL1       -0.4734
     17 C         142.5397  140.3922  166.3120 C.3     1  UNL1        0.1982
     18 O         144.2662  139.6667  160.6117 O.3     1  UNL1       -0.4754
     19 C         143.5372  140.3784  159.5109 C.3     1  UNL1        0.2068
     20 C         143.9940  141.7354  159.0637 C.3     1  UNL1        0.0646
     21 C         144.6705  142.6568  160.0350 C.3     1  UNL1        0.0759
     22 N         143.8639  143.3663  161.0819 N.3     1  UNL1       -0.2726
     23 C         144.3858  143.9099  162.3789 C.3     1  UNL1        0.0721
     24 C         143.2383  144.5364  163.1143 C.3     1  UNL1        0.0188
     25 C         142.0071  144.3799  162.2718 C.3     1  UNL1        0.0188
     26 C         142.3937  143.6567  161.0157 C.3     1  UNL1        0.0721
@<TRIPOS>BOND
     1     8     7    1
     2     8     9    1
     3     9    10    1
     4    10    11   ar
     5    11    12   ar
     6    12    13   ar
     7    13    14   ar
     8    14    15   ar
     9    15    16    1
    10    16    17    1
    11    17     1    1
    12     1     2   ar
    13     2     3   ar
    14     3     4   ar
    15     4    18    1
    16    18    19    1
    17    19    20    1
    18    20    21    1
    19    21    22    1
    20    22    23    1
    21    23    24    1
    22    24    25    1
    23    25    26    1
    24     4     5   ar
    25     5     6   ar
    26    17     8    1
    27     6     1   ar
    28    15    10   ar
    29    26    22    1
@<TRIPOS>MOLECULE
*****
 26 29 0 0 0
SMALL
GASTEIGER

@<TRIPOS>ATOM
      1 C         141.5995  140.4986  164.3739 C.ar    1  UNL1        0.0182
      2 C         142.5677  139.4661  163.8774 C.ar    1  UNL1        0.0023
      3 C         142.8107  139.3124  162.4053 C.ar    1  UNL1        0.0367
      4 C         142.0855  140.1911  161.4297 C.ar    1  UNL1        0.1385
      5 C         141.1173  141.2235  161.9262 C.ar    1  UNL1        0.0367
      6 C         140.8743  141.3773  163.3983 C.ar    1  UNL1        0.0023
      7 C         139.2414  139.1558  165.6532 C.3     1  UNL1        0.0162
      8 C         140.1774  139.9810  166.4858 C.3     1  UNL1        0.0963
      9 S         139.9344  140.1347  167.9580 S.3     1  UNL1       -0.1075
     10 C         140.8704  140.9598  168.7905 C.ar    1  UNL1        0.0593
     11 C         140.6274  141.1135  170.2627 C.ar    1  UNL1        0.0092
     12 C         141.5633  141.9387  171.0952 C.ar    1  UNL1        0.0007
     13 C         142.7424  142.6101  170.4555 C.ar    1  UNL1        0.0031
     14 C         142.9854  142.4563  168.9834 C.ar    1  UNL1        0.0374
     15 C         142.0494  141.6312  168.1509 C.ar    1  UNL1        0.1444
     16 O         142.2924  141.4775  166.6786 O.3     1  UNL1       -0.4734
     17 C         141.3565  140.6524  165.8462 C.3     1  UNL1        0.1982
     18 O         142.3285  140.0373  159.9574 O.3     1  UNL1       -0.4754
     19 C         143.4622  140.7705  159.3038 C.3     1  UNL1        0.2068
     20 C         143.7416  142.1983  159.6688 C.3     1  UNL1        0.0646
     21 C         144.9160  142.5339  160.5395 C.3     1  UNL1        0.0759
     22 N         144.7326  142.6856  162.0204 N.3     1  UNL1       -0.2726
     23 C         145.4157  141.8741  163.0812 C.3     1  UNL1        0.0721
     24 C         144.9392  142.3623  164.4171 C.3     1  UNL1        0.0188
     25 C         143.9616  143.4756  164.1820 C.3     1  UNL1        0.0188
     26 C         143.8340  143.6753  162.7008 C.3     1  UNL1        0.0721
@<TRIPOS>BOND
     1     8     7    1
     2     8     9    1
     3     9    10    1
     4    10    11   ar
     5    11    12   ar
     6    12    13   ar
     7    13    14   ar
     8    14    15   ar
     9    15    16    1
    10    16    17    1
    11    17     1    1
    12     1     2   ar
    13     2     3   ar
    14     3     4   ar
    15     4    18    1
    16    18    19    1
    17    19    20    1
    18    20    21    1
    19    21    22    1
    20    22    23    1
    21    23    24    1
    22    24    25    1
    23    25    26    1
    24     4     5   ar
    25     5     6   ar
    26    17     8    1
    27     6     1   ar
    28    15    10   ar
    29    26    22    1
@<TRIPOS>MOLECULE
*****
 26 29 0 0 0
SMALL
GASTEIGER

@<TRIPOS>ATOM
      1 C         140.4115  140.0790  164.3105 C.ar    1  UNL1        0.0182
      2 C         139.1240  139.3220  164.1720 C.ar    1  UNL1        0.0023
      3 C         138.5760  139.0172  162.8094 C.ar    1  UNL1        0.0367
      4 C         139.3156  139.4693  161.5853 C.ar    1  UNL1        0.1385
      5 C         140.6032  140.2263  161.7238 C.ar    1  UNL1        0.0367
      6 C         141.1511  140.5311  163.0864 C.ar    1  UNL1        0.0023
      7 C         142.4954  138.2937  165.5231 C.3     1  UNL1        0.0162
      8 C         142.0014  139.4912  166.2795 C.3     1  UNL1        0.0963
      9 S         142.5494  139.7960  167.6421 S.3     1  UNL1       -0.1075
     10 C         142.0554  140.9934  168.3986 C.ar    1  UNL1        0.0593
     11 C         142.6034  141.2982  169.7612 C.ar    1  UNL1        0.0092
     12 C         142.1094  142.4956  170.5176 C.ar    1  UNL1        0.0007
     13 C         141.0675  143.3883  169.9113 C.ar    1  UNL1        0.0031
     14 C         140.5195  143.0835  168.5487 C.ar    1  UNL1        0.0374
     15 C         141.0135  141.8861  167.7923 C.ar    1  UNL1        0.1444
     16 O         140.4655  141.5813  166.4296 O.3     1  UNL1       -0.4734
     17 C         140.9595  140.3838  165.6732 C.3     1  UNL1        0.1982
     18 O         138.7677  139.1645  160.2226 O.3     1  UNL1       -0.4754
     19 C         138.9257  140.1591  159.1110 C.3     1  UNL1        0.2068
     20 C         138.2099  141.4757  159.1752 C.3     1  UNL1        0.0646
     21 C         138.9472  142.7103  159.6020 C.3     1  UNL1        0.0759
     22 N         138.7920  143.2309  161.0001 N.3     1  UNL1       -0.2726
     23 C         137.8237  142.7237  162.0275 C.3     1  UNL1        0.0721
     24 C         138.0111  143.5294  163.2787 C.3     1  UNL1        0.0188
     25 C         139.0952  144.5346  163.0248 C.3     1  UNL1        0.0188
     26 C         139.5778  144.3501  161.6165 C.3     1  UNL1        0.0721
@<TRIPOS>BOND
     1     8     7    1
     2     8     9    1
     3     9    10    1
     4    10    11   ar
     5    11    12   ar
     6    12    13   ar
     7    13    14   ar
     8    14    15   ar
     9    15    16    1
    10    16    17    1
    11    17     1    1
    12     1     2   ar
    13     2     3   ar
    14     3     4   ar
    15     4    18    1
    16    18    19    1
    17    19    20    1
    18    20    21    1
    19    21    22    1
    20    22    23    1
    21    23    24    1
    22    24    25    1
    23    25    26    1
    24     4     5   ar
    25     5     6   ar
    26    17     8    1
    27     6     1   ar
    28    15    10   ar
    29    26    22    1
@<TRIPOS>MOLECULE
*****
 26 29 0 0 0
SMALL
GASTEIGER

@<TRIPOS>ATOM
      1 C         139.8969  139.4284  164.9347 C.ar    1  UNL1        0.0182
      2 C         138.9517  140.1696  164.0362 C.ar    1  UNL1        0.0023
      3 C         138.6564  139.6451  162.6623 C.ar    1  UNL1        0.0367
      4 C         139.3061  138.3795  162.1869 C.ar    1  UNL1        0.1385
      5 C         140.2513  137.6384  163.0854 C.ar    1  UNL1        0.0367
      6 C         140.5467  138.1628  164.4593 C.ar    1  UNL1        0.0023
      7 C         137.9830  138.9030  167.1843 C.3     1  UNL1        0.0162
      8 C         139.2353  139.6902  167.4335 C.3     1  UNL1        0.0963
      9 S         139.5307  140.2147  168.8074 S.3     1  UNL1       -0.1075
     10 C         140.7830  141.0019  169.0565 C.ar    1  UNL1        0.0593
     11 C         141.0783  141.5264  170.4305 C.ar    1  UNL1        0.0092
     12 C         142.3306  142.3135  170.6795 C.ar    1  UNL1        0.0007
     13 C         143.2876  142.5762  169.5547 C.ar    1  UNL1        0.0031
     14 C         142.9923  142.0518  168.1808 C.ar    1  UNL1        0.0374
     15 C         141.7400  141.2646  167.9317 C.ar    1  UNL1        0.1444
     16 O         141.4446  140.7401  166.5578 O.3     1  UNL1       -0.4734
     17 C         140.1923  139.9529  166.3087 C.3     1  UNL1        0.1982
     18 O         139.0107  137.8550  160.8129 O.3     1  UNL1       -0.4754
     19 C         139.7071  138.4411  159.6207 C.3     1  UNL1        0.2068
     20 C         141.1790  138.7248  159.6762 C.3     1  UNL1        0.0646
     21 C         141.6733  140.1394  159.6076 C.3     1  UNL1        0.0759
     22 N         141.5833  141.0247  160.8151 N.3     1  UNL1       -0.2726
     23 C         140.6923  142.2220  160.9661 C.3     1  UNL1        0.0721
     24 C         140.9268  142.8056  162.3279 C.3     1  UNL1        0.0188
     25 C         141.9627  141.9689  163.0186 C.3     1  UNL1        0.0188
     26 C         142.3684  140.8683  162.0836 C.3     1  UNL1        0.0721
@<TRIPOS>BOND
     1     8     7    1
     2     8     9    1
     3     9    10    1
     4    10    11   ar
     5    11    12   ar
     6    12    13   ar
     7    13    14   ar
     8    14    15   ar
     9    15    16    1
    10    16    17    1
    11    17     1    1
    12     1     2   ar
    13     2     3   ar
    14     3     4   ar
    15     4    18    1
    16    18    19    1
    17    19    20    1
    18    20    21    1
    19    21    22    1
    20    22    23    1
    21    23    24    1
    22    24    25    1
    23    25    26    1
    24     4     5   ar
    25     5     6   ar
    26    17     8    1
    27     6     1   ar
    28    15    10   ar
    29    26    22    1
@<TRIPOS>MOLECULE
*****
 26 29 0 0 0
SMALL
GASTEIGER

@<TRIPOS>ATOM
      1 C         141.4612  142.6416  163.5932 C.ar    1  UNL1        0.0182
      2 C         140.5258  141.4981  163.8526 C.ar    1  UNL1        0.0023
      3 C         140.6235  140.7251  165.1343 C.ar    1  UNL1        0.0367
      4 C         141.6567  141.0956  166.1566 C.ar    1  UNL1        0.1385
      5 C         142.5922  142.2391  165.8972 C.ar    1  UNL1        0.0367
      6 C         142.4944  143.0121  164.6155 C.ar    1  UNL1        0.0023
      7 C         139.6391  145.0178  163.4098 C.3     1  UNL1        0.0162
      8 C         140.4524  144.6028  162.2197 C.3     1  UNL1        0.0963
      9 S         140.3546  145.3758  160.9380 S.3     1  UNL1       -0.1075
     10 C         141.1679  144.9607  159.7478 C.ar    1  UNL1        0.0593
     11 C         141.0701  145.7337  158.4661 C.ar    1  UNL1        0.0092
     12 C         141.8833  145.3186  157.2760 C.ar    1  UNL1        0.0007
     13 C         142.7944  144.1305  157.3677 C.ar    1  UNL1        0.0031
     14 C         142.8922  143.3575  158.6494 C.ar    1  UNL1        0.0374
     15 C         142.0789  143.7726  159.8395 C.ar    1  UNL1        0.1444
     16 O         142.1767  142.9996  161.1213 O.3     1  UNL1       -0.4734
     17 C         141.3635  143.4147  162.3113 C.3     1  UNL1        0.1982
     18 O         141.7545  140.3226  167.4384 O.3     1  UNL1       -0.4754
     19 C         142.7943  139.2523  167.5913 C.3     1  UNL1        0.2068
     20 C         143.1937  138.4204  166.4089 C.3     1  UNL1        0.0646
     21 C         144.4452  138.7481  165.6496 C.3     1  UNL1        0.0759
     22 N         144.3564  139.4202  164.3116 N.3     1  UNL1       -0.2726
     23 C         143.3912  139.0780  163.2154 C.3     1  UNL1        0.0721
     24 C         143.6554  139.9987  162.0610 C.3     1  UNL1        0.0188
     25 C         144.7838  140.9100  162.4437 C.3     1  UNL1        0.0188
     26 C         145.2170  140.5524  163.8347 C.3     1  UNL1        0.0721
@<TRIPOS>BOND
     1     8     7    1
     2     8     9    1
     3     9    10    1
     4    10    11   ar
     5    11    12   ar
     6    12    13   ar
     7    13    14   ar
     8    14    15   ar
     9    15    16    1
    10    16    17    1
    11    17     1    1
    12     1     2   ar
    13     2     3   ar
    14     3     4   ar
    15     4    18    1
    16    18    19    1
    17    19    20    1
    18    20    21    1
    19    21    22    1
    20    22    23    1
    21    23    24    1
    22    24    25    1
    23    25    26    1
    24     4     5   ar
    25     5     6   ar
    26    17     8    1
    27     6     1   ar
    28    15    10   ar
    29    26    22    1
@<TRIPOS>MOLECULE
*****
 26 29 0 0 0
SMALL
GASTEIGER

@<TRIPOS>ATOM
      1 C         142.2866  139.4368  164.3829 C.ar    1  UNL1        0.0182
      2 C         143.2098  140.1192  163.4175 C.ar    1  UNL1        0.0023
      3 C         143.3204  139.6222  162.0066 C.ar    1  UNL1        0.0367
      4 C         142.5078  138.4427  161.5611 C.ar    1  UNL1        0.1385
      5 C         141.5847  137.7603  162.5265 C.ar    1  UNL1        0.0367
      6 C         141.4740  138.2573  163.9374 C.ar    1  UNL1        0.0023
      7 C         143.6807  137.9758  166.6015 C.3     1  UNL1        0.0162
      8 C         142.8730  139.2033  166.9032 C.3     1  UNL1        0.0963
      9 S         142.7625  139.7004  168.3141 S.3     1  UNL1       -0.1075
     10 C         141.9549  140.9279  168.6158 C.ar    1  UNL1        0.0593
     11 C         141.8443  141.4249  170.0267 C.ar    1  UNL1        0.0092
     12 C         141.0368  142.6524  170.3283 C.ar    1  UNL1        0.0007
     13 C         140.3397  143.3829  169.2190 C.ar    1  UNL1        0.0031
     14 C         140.4503  142.8859  167.8081 C.ar    1  UNL1        0.0374
     15 C         141.2579  141.6584  167.5065 C.ar    1  UNL1        0.1444
     16 O         141.3685  141.1613  166.0955 O.3     1  UNL1       -0.4734
     17 C         142.1760  139.9338  165.7939 C.3     1  UNL1        0.1982
     18 O         142.6184  137.9457  160.1501 O.3     1  UNL1       -0.4754
     19 C         141.5662  138.3057  159.1435 C.3     1  UNL1        0.2068
     20 C         140.7729  139.5682  159.3067 C.3     1  UNL1        0.0646
     21 C         139.3744  139.5108  159.8459 C.3     1  UNL1        0.0759
     22 N         139.0946  139.9485  161.2530 N.3     1  UNL1       -0.2726
     23 C         139.7292  141.1109  161.9575 C.3     1  UNL1        0.0721
     24 C         139.1578  141.1816  163.3426 C.3     1  UNL1        0.0188
     25 C         138.1701  140.0629  163.4943 C.3     1  UNL1        0.0188
     26 C         138.1310  139.3008  162.2028 C.3     1  UNL1        0.0721
@<TRIPOS>BOND
     1     8     7    1
     2     8     9    1
     3     9    10    1
     4    10    11   ar
     5    11    12   ar
     6    12    13   ar
     7    13    14   ar
     8    14    15   ar
     9    15    16    1
    10    16    17    1
    11    17     1    1
    12     1     2   ar
    13     2     3   ar
    14     3     4   ar
    15     4    18    1
    16    18    19    1
    17    19    20    1
    18    20    21    1
    19    21    22    1
    20    22    23    1
    21    23    24    1
    22    24    25    1
    23    25    26    1
    24     4     5   ar
    25     5     6   ar
    26    17     8    1
    27     6     1   ar
    28    15    10   ar
    29    26    22    1
