@<TRIPOS>MOLECULE
*****
 28 32 0 0 0
SMALL
GASTEIGER

@<TRIPOS>ATOM
      1 C         142.5765  137.3686  157.6575 C.3     1  UNL1        0.0578
      2 C         141.6038  137.9047  156.6494 C.3     1  UNL1        0.0163
      3 C         141.4174  136.8636  155.5859 C.3     1  UNL1        0.0058
      4 C         142.2750  135.6840  155.9367 C.3     1  UNL1        0.0240
      5 C         143.2035  134.6503  156.5018 C.3     1  UNL1        0.0301
      6 C         143.5371  133.2938  155.9552 C.ar    1  UNL1       -0.0255
      7 C         144.5169  132.5746  156.8342 C.ar    1  UNL1       -0.0046
      8 C         144.9841  131.1975  156.4665 C.ar    1  UNL1       -0.0003
      9 C         144.4715  130.5396  155.2197 C.ar    1  UNL1       -0.0003
     10 C         143.4917  131.2589  154.3407 C.ar    1  UNL1       -0.0042
     11 C         143.0245  132.6360  154.7085 C.ar    1  UNL1       -0.0217
     12 C         142.0518  133.1721  153.7004 C.3     1  UNL1        0.0520
     13 C         141.3513  134.4985  153.6900 C.ar    1  UNL1       -0.0218
     14 C         140.4571  134.6368  152.4936 C.ar    1  UNL1       -0.0042
     15 C         139.6624  135.8929  152.2925 C.ar    1  UNL1       -0.0003
     16 C         139.7617  137.0107  153.2877 C.ar    1  UNL1       -0.0003
     17 C         140.6559  136.8725  154.4841 C.ar    1  UNL1       -0.0046
     18 C         141.4507  135.6163  154.6853 C.ar    1  UNL1       -0.0261
     19 C         142.9914  135.9961  157.2170 C.3     1  UNL1        0.0203
     20 C         144.0003  139.5032  161.3543 C.3     1  UNL1        0.0393
     21 C         143.8178  140.2622  160.0735 C.3     1  UNL1        0.0229
     22 C         143.3432  139.5507  158.8412 C.3     1  UNL1        0.0724
     23 N         143.0511  138.0801  158.8898 N.3     1  UNL1       -0.2739
     24 C         143.2337  137.3212  160.1707 C.3     1  UNL1        0.0724
     25 C         143.7083  138.0326  161.4029 C.3     1  UNL1        0.0229
     26 O         144.0035  139.7683  163.9388 O.co2   1  UNL1       -0.5492
     27 C         144.4749  140.2147  162.5866 C.2     1  UNL1        0.0501
     28 O         145.4209  141.3725  162.4667 O.co2   1  UNL1       -0.5492
@<TRIPOS>UNITY_ATOM_ATTR
26 1
charge -1
@<TRIPOS>BOND
     1    26    27   ar
     2    27    28   ar
     3    27    20    1
     4    20    21    1
     5    21    22    1
     6    22    23    1
     7    23     1    1
     8     1     2    1
     9     2     3    1
    10     4     3    1
    11     4     5    1
    12     5     6    1
    13     6     7   ar
    14     7     8   ar
    15     8     9   ar
    16     9    10   ar
    17    10    11   ar
    18    11    12    1
    19    12    13    1
    20    13    14   ar
    21    14    15   ar
    22    15    16   ar
    23    16    17   ar
    24    17    18   ar
    25     4    19    1
    26    23    24    1
    27    24    25    1
    28    25    20    1
    29    19     1    1
    30    18     4    1
    31    11     6   ar
    32    18    13   ar
@<TRIPOS>MOLECULE
*****
 28 32 0 0 0
SMALL
GASTEIGER

@<TRIPOS>ATOM
      1 C         140.4566  142.2306  165.0218 C.3     1  UNL1        0.0578
      2 C         140.1183  143.5805  164.4623 C.3     1  UNL1        0.0163
      3 C         140.3929  143.5532  162.9879 C.3     1  UNL1        0.0058
      4 C         140.9009  142.1863  162.6363 C.3     1  UNL1        0.0240
      5 C         141.3786  140.7672  162.5467 C.3     1  UNL1        0.0301
      6 C         141.8425  140.0111  161.3371 C.ar    1  UNL1       -0.0255
      7 C         142.2364  138.6066  161.6865 C.ar    1  UNL1       -0.0046
      8 C         142.7310  137.6784  160.6171 C.ar    1  UNL1       -0.0003
      9 C         142.8318  138.1547  159.1983 C.ar    1  UNL1       -0.0003
     10 C         142.4380  139.5592  158.8489 C.ar    1  UNL1       -0.0042
     11 C         141.9433  140.4874  159.9183 C.ar    1  UNL1       -0.0217
     12 C         141.6051  141.8374  159.3587 C.3     1  UNL1        0.0520
     13 C         141.0825  143.0446  160.0796 C.ar    1  UNL1       -0.0218
     14 C         140.8768  144.1968  159.1416 C.ar    1  UNL1       -0.0042
     15 C         140.3577  145.5043  159.6622 C.ar    1  UNL1       -0.0003
     16 C         140.0443  145.6596  161.1208 C.ar    1  UNL1       -0.0003
     17 C         140.2500  144.5073  162.0589 C.ar    1  UNL1       -0.0046
     18 C         140.7691  143.1998  161.5383 C.ar    1  UNL1       -0.0261
     19 C         140.9402  141.3688  163.8933 C.3     1  UNL1        0.0203
     20 C         140.0855  140.9844  169.3299 C.3     1  UNL1        0.0393
     21 C         139.7605  140.0101  168.2367 C.3     1  UNL1        0.0229
     22 C         139.8842  140.4255  166.8007 C.3     1  UNL1        0.0724
     23 N         140.3329  141.8152  166.4579 N.3     1  UNL1       -0.2739
     24 C         140.6579  142.7895  167.5512 C.3     1  UNL1        0.0724
     25 C         140.5342  142.3741  168.9871 C.3     1  UNL1        0.0229
     26 O         140.6051  141.3916  171.8427 O.co2   1  UNL1       -0.5492
     27 C         139.9618  140.5690  170.7660 C.2     1  UNL1        0.0501
     28 O         139.1948  139.3311  171.1253 O.co2   1  UNL1       -0.5492
@<TRIPOS>UNITY_ATOM_ATTR
26 1
charge -1
@<TRIPOS>BOND
     1    26    27   ar
     2    27    28   ar
     3    27    20    1
     4    20    21    1
     5    21    22    1
     6    22    23    1
     7    23     1    1
     8     1     2    1
     9     2     3    1
    10     4     3    1
    11     4     5    1
    12     5     6    1
    13     6     7   ar
    14     7     8   ar
    15     8     9   ar
    16     9    10   ar
    17    10    11   ar
    18    11    12    1
    19    12    13    1
    20    13    14   ar
    21    14    15   ar
    22    15    16   ar
    23    16    17   ar
    24    17    18   ar
    25     4    19    1
    26    23    24    1
    27    24    25    1
    28    25    20    1
    29    19     1    1
    30    18     4    1
    31    11     6   ar
    32    18    13   ar
@<TRIPOS>MOLECULE
*****
 28 32 0 0 0
SMALL
GASTEIGER

@<TRIPOS>ATOM
      1 C         141.5278  138.8379  161.3840 C.3     1  UNL1        0.0578
      2 C         142.3091  138.0996  162.4302 C.3     1  UNL1        0.0163
      3 C         142.1711  138.8456  163.7241 C.3     1  UNL1        0.0058
      4 C         141.3044  140.0448  163.4776 C.3     1  UNL1        0.0240
      5 C         140.4274  141.1544  162.9779 C.3     1  UNL1        0.0301
      6 C         139.8645  142.3172  163.7402 C.ar    1  UNL1       -0.0255
      7 C         139.0325  143.1998  162.8577 C.ar    1  UNL1       -0.0046
      8 C         138.3757  144.4229  163.4256 C.ar    1  UNL1       -0.0003
      9 C         138.5508  144.7634  164.8759 C.ar    1  UNL1       -0.0003
     10 C         139.3828  143.8808  165.7583 C.ar    1  UNL1       -0.0042
     11 C         140.0397  142.6577  165.1905 C.ar    1  UNL1       -0.0217
     12 C         140.8210  141.9194  166.2367 C.3     1  UNL1        0.0520
     13 C         141.6201  140.6584  166.0911 C.ar    1  UNL1       -0.0218
     14 C         142.2490  140.2548  167.3916 C.ar    1  UNL1       -0.0042
     15 C         143.0931  139.0170  167.4644 C.ar    1  UNL1       -0.0003
     16 C         143.3083  138.1828  166.2365 C.ar    1  UNL1       -0.0003
     17 C         142.6793  138.5863  164.9359 C.ar    1  UNL1       -0.0046
     18 C         141.8352  139.8241  164.8632 C.ar    1  UNL1       -0.0261
     19 C         140.9069  140.0401  162.0313 C.3     1  UNL1        0.0203
     20 C         141.1186  137.6538  157.0618 C.3     1  UNL1        0.0393
     21 C         142.4445  137.5274  157.7518 C.3     1  UNL1        0.0229
     22 C         142.5809  137.9221  159.1925 C.3     1  UNL1        0.0724
     23 N         141.3914  138.4432  159.9433 N.3     1  UNL1       -0.2739
     24 C         140.0655  138.5695  159.2532 C.3     1  UNL1        0.0724
     25 C         139.9291  138.1749  157.8126 C.3     1  UNL1        0.0229
     26 O         142.1118  137.5060  154.6657 O.co2   1  UNL1       -0.5492
     27 C         140.9822  137.2591  155.6211 C.2     1  UNL1        0.0501
     28 O         139.7162  136.6174  155.1359 O.co2   1  UNL1       -0.5492
@<TRIPOS>UNITY_ATOM_ATTR
26 1
charge -1
@<TRIPOS>BOND
     1    26    27   ar
     2    27    28   ar
     3    27    20    1
     4    20    21    1
     5    21    22    1
     6    22    23    1
     7    23     1    1
     8     1     2    1
     9     2     3    1
    10     4     3    1
    11     4     5    1
    12     5     6    1
    13     6     7   ar
    14     7     8   ar
    15     8     9   ar
    16     9    10   ar
    17    10    11   ar
    18    11    12    1
    19    12    13    1
    20    13    14   ar
    21    14    15   ar
    22    15    16   ar
    23    16    17   ar
    24    17    18   ar
    25     4    19    1
    26    23    24    1
    27    24    25    1
    28    25    20    1
    29    19     1    1
    30    18     4    1
    31    11     6   ar
    32    18    13   ar
@<TRIPOS>MOLECULE
*****
 28 32 0 0 0
SMALL
GASTEIGER

@<TRIPOS>ATOM
      1 C         141.2716  139.9926  164.9500 C.3     1  UNL1        0.0578
      2 C         141.7771  138.8114  164.1759 C.3     1  UNL1        0.0163
      3 C         141.9258  139.2262  162.7421 C.3     1  UNL1        0.0058
      4 C         141.5122  140.6637  162.6302 C.3     1  UNL1        0.0240
      5 C         141.0534  142.0836  162.7826 C.3     1  UNL1        0.0301
      6 C         140.9332  143.1458  161.7303 C.ar    1  UNL1       -0.0255
      7 C         140.4322  144.4360  162.3087 C.ar    1  UNL1       -0.0046
      8 C         140.2401  145.6307  161.4223 C.ar    1  UNL1       -0.0003
      9 C         140.5492  145.5353  159.9575 C.ar    1  UNL1       -0.0003
     10 C         141.0502  144.2452  159.3792 C.ar    1  UNL1       -0.0042
     11 C         141.2422  143.0504  160.2656 C.ar    1  UNL1       -0.0217
     12 C         141.7477  141.8692  159.4915 C.3     1  UNL1        0.0520
     13 C         142.0690  140.4918  159.9907 C.ar    1  UNL1       -0.0218
     14 C         142.5497  139.6047  158.8808 C.ar    1  UNL1       -0.0042
     15 C         142.9256  138.1812  159.1676 C.ar    1  UNL1       -0.0003
     16 C         142.8208  137.6447  160.5644 C.ar    1  UNL1       -0.0003
     17 C         142.3401  138.5317  161.6744 C.ar    1  UNL1       -0.0046
     18 C         141.9642  139.9553  161.3876 C.ar    1  UNL1       -0.0261
     19 C         141.1079  141.1374  163.9947 C.3     1  UNL1        0.0203
     20 C         140.3994  140.0854  169.3638 C.3     1  UNL1        0.0393
     21 C         139.2737  139.9699  168.3791 C.3     1  UNL1        0.0229
     22 C         139.5644  139.9390  166.9079 C.3     1  UNL1        0.0724
     23 N         140.9808  140.0235  166.4213 N.3     1  UNL1       -0.2739
     24 C         142.1065  140.1390  167.4060 C.3     1  UNL1        0.0724
     25 C         141.8158  140.1699  168.8772 C.3     1  UNL1        0.0229
     26 O         139.1386  139.1382  171.4285 O.co2   1  UNL1       -0.5492
     27 C         140.1086  140.1163  170.8350 C.2     1  UNL1        0.0501
     28 O         140.7879  141.1253  171.7127 O.co2   1  UNL1       -0.5492
@<TRIPOS>UNITY_ATOM_ATTR
26 1
charge -1
@<TRIPOS>BOND
     1    26    27   ar
     2    27    28   ar
     3    27    20    1
     4    20    21    1
     5    21    22    1
     6    22    23    1
     7    23     1    1
     8     1     2    1
     9     2     3    1
    10     4     3    1
    11     4     5    1
    12     5     6    1
    13     6     7   ar
    14     7     8   ar
    15     8     9   ar
    16     9    10   ar
    17    10    11   ar
    18    11    12    1
    19    12    13    1
    20    13    14   ar
    21    14    15   ar
    22    15    16   ar
    23    16    17   ar
    24    17    18   ar
    25     4    19    1
    26    23    24    1
    27    24    25    1
    28    25    20    1
    29    19     1    1
    30    18     4    1
    31    11     6   ar
    32    18    13   ar
@<TRIPOS>MOLECULE
*****
 28 32 0 0 0
SMALL
GASTEIGER

@<TRIPOS>ATOM
      1 C         140.5362  139.6115  159.5737 C.3     1  UNL1        0.0578
      2 C         140.5489  141.1016  159.4025 C.3     1  UNL1        0.0163
      3 C         140.0656  141.7192  160.6811 C.3     1  UNL1        0.0058
      4 C         139.7542  140.6108  161.6425 C.3     1  UNL1        0.0240
      5 C         139.5204  139.3400  162.4043 C.3     1  UNL1        0.0301
      6 C         139.0181  139.1694  163.8074 C.ar    1  UNL1       -0.0255
      7 C         138.9292  137.7205  164.1853 C.ar    1  UNL1       -0.0046
      8 C         138.4476  137.3300  165.5511 C.ar    1  UNL1       -0.0003
      9 C         138.0550  138.3883  166.5390 C.ar    1  UNL1       -0.0003
     10 C         138.1439  139.8371  166.1611 C.ar    1  UNL1       -0.0042
     11 C         138.6254  140.2277  164.7953 C.ar    1  UNL1       -0.0217
     12 C         138.6382  141.7178  164.6240 C.3     1  UNL1        0.0520
     13 C         139.0466  142.5178  163.4227 C.ar    1  UNL1       -0.0218
     14 C         138.9078  143.9904  163.6717 C.ar    1  UNL1       -0.0042
     15 C         139.2656  144.9704  162.5939 C.ar    1  UNL1       -0.0003
     16 C         139.7622  144.4777  161.2671 C.ar    1  UNL1       -0.0003
     17 C         139.9011  143.0050  161.0180 C.ar    1  UNL1       -0.0046
     18 C         139.5433  142.0251  162.0958 C.ar    1  UNL1       -0.0261
     19 C         140.0450  139.3081  160.9581 C.3     1  UNL1        0.0203
     20 C         141.7573  136.5828  156.4775 C.3     1  UNL1        0.0393
     21 C         142.7444  137.0386  157.5110 C.3     1  UNL1        0.0229
     22 C         142.3373  138.0482  158.5430 C.3     1  UNL1        0.0724
     23 N         140.9432  138.6019  158.5416 N.3     1  UNL1       -0.2739
     24 C         139.9562  138.1460  157.5082 C.3     1  UNL1        0.0724
     25 C         140.3632  137.1365  156.4762 C.3     1  UNL1        0.0229
     26 O         141.1473  134.6264  154.8806 O.co2   1  UNL1       -0.5492
     27 C         142.1643  135.5732  155.4455 C.2     1  UNL1        0.0501
     28 O         143.5883  135.5105  154.9784 O.co2   1  UNL1       -0.5492
@<TRIPOS>UNITY_ATOM_ATTR
26 1
charge -1
@<TRIPOS>BOND
     1    26    27   ar
     2    27    28   ar
     3    27    20    1
     4    20    21    1
     5    21    22    1
     6    22    23    1
     7    23     1    1
     8     1     2    1
     9     2     3    1
    10     4     3    1
    11     4     5    1
    12     5     6    1
    13     6     7   ar
    14     7     8   ar
    15     8     9   ar
    16     9    10   ar
    17    10    11   ar
    18    11    12    1
    19    12    13    1
    20    13    14   ar
    21    14    15   ar
    22    15    16   ar
    23    16    17   ar
    24    17    18   ar
    25     4    19    1
    26    23    24    1
    27    24    25    1
    28    25    20    1
    29    19     1    1
    30    18     4    1
    31    11     6   ar
    32    18    13   ar
@<TRIPOS>MOLECULE
*****
 28 32 0 0 0
SMALL
GASTEIGER

@<TRIPOS>ATOM
      1 C         143.6001  140.8915  161.2766 C.3     1  UNL1        0.0578
      2 C         144.1438  139.8350  162.1920 C.3     1  UNL1        0.0163
      3 C         143.4921  140.0030  163.5325 C.3     1  UNL1        0.0058
      4 C         142.5457  141.1635  163.4455 C.3     1  UNL1        0.0240
      5 C         141.6818  142.3410  163.1033 C.3     1  UNL1        0.0301
      6 C         140.7205  143.0832  163.9837 C.ar    1  UNL1       -0.0255
      7 C         140.0545  144.2054  163.2442 C.ar    1  UNL1       -0.0046
      8 C         139.0536  145.0755  163.9449 C.ar    1  UNL1       -0.0003
      9 C         138.7187  144.8234  165.3852 C.ar    1  UNL1       -0.0003
     10 C         139.3847  143.7011  166.1247 C.ar    1  UNL1       -0.0042
     11 C         140.3857  142.8310  165.4240 C.ar    1  UNL1       -0.0217
     12 C         140.9294  141.7745  166.3394 C.3     1  UNL1        0.0520
     13 C         141.9422  140.7091  166.0408 C.ar    1  UNL1       -0.0218
     14 C         142.2077  139.8528  167.2434 C.ar    1  UNL1       -0.0042
     15 C         143.1925  138.7245  167.1581 C.ar    1  UNL1       -0.0003
     16 C         143.9118  138.4526  165.8702 C.ar    1  UNL1       -0.0003
     17 C         143.6463  139.3090  164.6676 C.ar    1  UNL1       -0.0046
     18 C         142.6615  140.4372  164.7529 C.ar    1  UNL1       -0.0261
     19 C         142.6124  141.7126  162.0513 C.3     1  UNL1        0.0203
     20 C         144.7333  141.4924  156.9632 C.3     1  UNL1        0.0393
     21 C         144.0567  140.2239  157.3912 C.3     1  UNL1        0.0229
     22 C         143.6790  140.0236  158.8290 C.3     1  UNL1        0.0724
     23 N         143.9779  141.0918  159.8388 N.3     1  UNL1       -0.2739
     24 C         144.6546  142.3603  159.4108 C.3     1  UNL1        0.0724
     25 C         145.0323  142.5605  157.9731 C.3     1  UNL1        0.0229
     26 O         146.1971  142.6620  155.1634 O.co2   1  UNL1       -0.5492
     27 C         145.1111  141.6927  155.5255 C.2     1  UNL1        0.0501
     28 O         144.4029  140.9238  154.4498 O.co2   1  UNL1       -0.5492
@<TRIPOS>UNITY_ATOM_ATTR
26 1
charge -1
@<TRIPOS>BOND
     1    26    27   ar
     2    27    28   ar
     3    27    20    1
     4    20    21    1
     5    21    22    1
     6    22    23    1
     7    23     1    1
     8     1     2    1
     9     2     3    1
    10     4     3    1
    11     4     5    1
    12     5     6    1
    13     6     7   ar
    14     7     8   ar
    15     8     9   ar
    16     9    10   ar
    17    10    11   ar
    18    11    12    1
    19    12    13    1
    20    13    14   ar
    21    14    15   ar
    22    15    16   ar
    23    16    17   ar
    24    17    18   ar
    25     4    19    1
    26    23    24    1
    27    24    25    1
    28    25    20    1
    29    19     1    1
    30    18     4    1
    31    11     6   ar
    32    18    13   ar
@<TRIPOS>MOLECULE
*****
 28 32 0 0 0
SMALL
GASTEIGER

@<TRIPOS>ATOM
      1 C         141.5421  140.6702  160.6589 C.3     1  UNL1        0.0578
      2 C         140.6532  141.8781  160.6842 C.3     1  UNL1        0.0163
      3 C         140.4228  142.2541  162.1179 C.3     1  UNL1        0.0058
      4 C         141.1694  141.2785  162.9786 C.3     1  UNL1        0.0240
      5 C         141.9905  140.1915  163.6064 C.3     1  UNL1        0.0301
      6 C         142.2338  139.9254  165.0624 C.ar    1  UNL1       -0.0255
      7 C         143.1198  138.7314  165.2608 C.ar    1  UNL1       -0.0046
      8 C         143.4879  138.2928  166.6472 C.ar    1  UNL1       -0.0003
      9 C         142.9702  139.0482  167.8351 C.ar    1  UNL1       -0.0003
     10 C         142.0842  140.2422  167.6368 C.ar    1  UNL1       -0.0042
     11 C         141.7161  140.6808  166.2504 C.ar    1  UNL1       -0.0217
     12 C         140.8271  141.8887  166.2757 C.3     1  UNL1        0.0520
     13 C         140.2364  142.6397  165.1194 C.ar    1  UNL1       -0.0218
     14 C         139.4007  143.7948  165.5855 C.ar    1  UNL1       -0.0042
     15 C         138.7173  144.6783  164.5843 C.ar    1  UNL1       -0.0003
     16 C         138.8697  144.4068  163.1170 C.ar    1  UNL1       -0.0003
     17 C         139.7054  143.2516  162.6508 C.ar    1  UNL1       -0.0046
     18 C         140.3887  142.3681  163.6520 C.ar    1  UNL1       -0.0261
     19 C         141.8612  140.2996  162.0769 C.3     1  UNL1        0.0203
     20 C         142.9965  138.5332  156.9754 C.3     1  UNL1        0.0393
     21 C         143.2629  139.9994  157.1461 C.3     1  UNL1        0.0229
     22 C         142.7781  140.7118  158.3740 C.3     1  UNL1        0.0724
     23 N         142.0269  139.9579  159.4311 N.3     1  UNL1       -0.2739
     24 C         141.7605  138.4916  159.2602 C.3     1  UNL1        0.0724
     25 C         142.2453  137.7793  158.0324 C.3     1  UNL1        0.0229
     26 O         142.5183  137.4788  154.6495 O.co2   1  UNL1       -0.5492
     27 C         143.4813  137.8209  155.7475 C.2     1  UNL1        0.0501
     28 O         144.9290  137.4506  155.6177 O.co2   1  UNL1       -0.5492
@<TRIPOS>UNITY_ATOM_ATTR
26 1
charge -1
@<TRIPOS>BOND
     1    26    27   ar
     2    27    28   ar
     3    27    20    1
     4    20    21    1
     5    21    22    1
     6    22    23    1
     7    23     1    1
     8     1     2    1
     9     2     3    1
    10     4     3    1
    11     4     5    1
    12     5     6    1
    13     6     7   ar
    14     7     8   ar
    15     8     9   ar
    16     9    10   ar
    17    10    11   ar
    18    11    12    1
    19    12    13    1
    20    13    14   ar
    21    14    15   ar
    22    15    16   ar
    23    16    17   ar
    24    17    18   ar
    25     4    19    1
    26    23    24    1
    27    24    25    1
    28    25    20    1
    29    19     1    1
    30    18     4    1
    31    11     6   ar
    32    18    13   ar
@<TRIPOS>MOLECULE
*****
 28 32 0 0 0
SMALL
GASTEIGER

@<TRIPOS>ATOM
      1 C         139.2267  139.2980  161.3781 C.3     1  UNL1        0.0578
      2 C         139.3286  138.1867  160.3759 C.3     1  UNL1        0.0163
      3 C         139.6686  138.7915  159.0461 C.3     1  UNL1        0.0058
      4 C         139.7768  140.2766  159.2264 C.3     1  UNL1        0.0240
      5 C         139.8258  141.7106  159.6639 C.3     1  UNL1        0.0301
      6 C         140.1194  142.9300  158.8412 C.ar    1  UNL1       -0.0255
      7 C         140.0670  144.1775  159.6724 C.ar    1  UNL1       -0.0046
      8 C         140.3317  145.5117  159.0401 C.ar    1  UNL1       -0.0003
      9 C         140.6489  145.5983  157.5766 C.ar    1  UNL1       -0.0003
     10 C         140.7013  144.3508  156.7454 C.ar    1  UNL1       -0.0042
     11 C         140.4365  143.0167  157.3777 C.ar    1  UNL1       -0.0217
     12 C         140.5384  141.9052  156.3755 C.3     1  UNL1        0.0520
     13 C         140.3483  140.4328  156.5892 C.ar    1  UNL1       -0.0218
     14 C         140.5413  139.6647  155.3153 C.ar    1  UNL1       -0.0042
     15 C         140.3954  138.1718  155.3102 C.ar    1  UNL1       -0.0003
     16 C         140.0564  137.4470  156.5789 C.ar    1  UNL1       -0.0003
     17 C         139.8635  138.2151  157.8529 C.ar    1  UNL1       -0.0046
     18 C         140.0094  139.7080  157.8580 C.ar    1  UNL1       -0.0261
     19 C         139.5038  140.5897  160.6677 C.3     1  UNL1        0.0203
     20 C         138.2598  138.8377  165.7488 C.3     1  UNL1        0.0393
     21 C         138.7817  137.6675  164.9689 C.3     1  UNL1        0.0229
     22 C         139.1040  137.8209  163.5120 C.3     1  UNL1        0.0724
     23 N         138.9044  139.1445  162.8350 N.3     1  UNL1       -0.2739
     24 C         138.3825  140.3147  163.6150 C.3     1  UNL1        0.0724
     25 C         138.0602  140.1613  165.0719 C.3     1  UNL1        0.0229
     26 O         138.7488  139.4148  168.2344 O.co2   1  UNL1       -0.5492
     27 C         137.9374  138.6842  167.2058 C.2     1  UNL1        0.0501
     28 O         136.8038  137.8003  167.6341 O.co2   1  UNL1       -0.5492
@<TRIPOS>UNITY_ATOM_ATTR
26 1
charge -1
@<TRIPOS>BOND
     1    26    27   ar
     2    27    28   ar
     3    27    20    1
     4    20    21    1
     5    21    22    1
     6    22    23    1
     7    23     1    1
     8     1     2    1
     9     2     3    1
    10     4     3    1
    11     4     5    1
    12     5     6    1
    13     6     7   ar
    14     7     8   ar
    15     8     9   ar
    16     9    10   ar
    17    10    11   ar
    18    11    12    1
    19    12    13    1
    20    13    14   ar
    21    14    15   ar
    22    15    16   ar
    23    16    17   ar
    24    17    18   ar
    25     4    19    1
    26    23    24    1
    27    24    25    1
    28    25    20    1
    29    19     1    1
    30    18     4    1
    31    11     6   ar
    32    18    13   ar
@<TRIPOS>MOLECULE
*****
 28 32 0 0 0
SMALL
GASTEIGER

@<TRIPOS>ATOM
      1 C         138.9915  140.8739  161.6408 C.3     1  UNL1        0.0578
      2 C         138.1358  140.1034  162.6020 C.3     1  UNL1        0.0163
      3 C         138.7585  140.2068  163.9626 C.3     1  UNL1        0.0058
      4 C         139.9992  141.0412  163.8424 C.3     1  UNL1        0.0240
      5 C         141.1750  141.8911  163.4617 C.3     1  UNL1        0.0301
      6 C         142.2750  142.4127  164.3381 C.ar    1  UNL1       -0.0255
      7 C         143.2602  143.2281  163.5543 C.ar    1  UNL1       -0.0046
      8 C         144.4413  143.8438  164.2443 C.ar    1  UNL1       -0.0003
      9 C         144.6370  143.6441  165.7180 C.ar    1  UNL1       -0.0003
     10 C         143.6518  142.8287  166.5017 C.ar    1  UNL1       -0.0042
     11 C         142.4707  142.2130  165.8118 C.ar    1  UNL1       -0.0217
     12 C         141.6149  141.4424  166.7730 C.3     1  UNL1        0.0520
     13 C         140.3519  140.6813  166.4980 C.ar    1  UNL1       -0.0218
     14 C         139.8091  140.0509  167.7461 C.ar    1  UNL1       -0.0042
     15 C         138.5472  139.2418  167.6900 C.ar    1  UNL1       -0.0003
     16 C         137.8282  139.0633  166.3858 C.ar    1  UNL1       -0.0003
     17 C         138.3710  139.6937  165.1376 C.ar    1  UNL1       -0.0046
     18 C         139.6329  140.5027  165.1937 C.ar    1  UNL1       -0.0261
     19 C         140.1432  141.4535  162.4074 C.3     1  UNL1        0.0203
     20 C         138.2365  141.3612  157.2314 C.3     1  UNL1        0.0393
     21 C         138.5607  140.0081  157.7918 C.3     1  UNL1        0.0229
     22 C         138.8124  139.8456  159.2615 C.3     1  UNL1        0.0724
     23 N         138.7399  141.0363  160.1710 N.3     1  UNL1       -0.2739
     24 C         138.4156  142.3895  159.6106 C.3     1  UNL1        0.0724
     25 C         138.1639  142.5519  158.1409 C.3     1  UNL1        0.0229
     26 O         139.1390  141.6684  154.8146 O.co2   1  UNL1       -0.5492
     27 C         137.9848  141.5236  155.7616 C.2     1  UNL1        0.0501
     28 O         136.5790  141.5412  155.2388 O.co2   1  UNL1       -0.5492
@<TRIPOS>UNITY_ATOM_ATTR
26 1
charge -1
@<TRIPOS>BOND
     1    26    27   ar
     2    27    28   ar
     3    27    20    1
     4    20    21    1
     5    21    22    1
     6    22    23    1
     7    23     1    1
     8     1     2    1
     9     2     3    1
    10     4     3    1
    11     4     5    1
    12     5     6    1
    13     6     7   ar
    14     7     8   ar
    15     8     9   ar
    16     9    10   ar
    17    10    11   ar
    18    11    12    1
    19    12    13    1
    20    13    14   ar
    21    14    15   ar
    22    15    16   ar
    23    16    17   ar
    24    17    18   ar
    25     4    19    1
    26    23    24    1
    27    24    25    1
    28    25    20    1
    29    19     1    1
    30    18     4    1
    31    11     6   ar
    32    18    13   ar
