@<TRIPOS>MOLECULE
*****
 42 45 0 0 0
SMALL
GASTEIGER

@<TRIPOS>ATOM
      1 C         139.7283  140.4198  164.5262 C.3     1  UNL1        0.0823
      2 C         139.8391  140.4726  166.0213 C.ar    1  UNL1        0.0375
      3 C         140.7805  141.4438  166.6697 C.ar    1  UNL1        0.0023
      4 C         140.8913  141.4966  168.1647 C.ar    1  UNL1        0.0181
      5 C         141.8327  142.4678  168.8131 C.ar    1  UNL1        0.0082
      6 C         141.9435  142.5206  170.3081 C.ar    1  UNL1        0.0347
      7 BR        142.8849  143.4918  170.9566 Br      1  UNL1       -0.0490
      8 C         141.1129  141.6021  171.1546 C.ar    1  UNL1        0.0082
      9 C         140.1716  140.6309  170.5062 C.ar    1  UNL1        0.0197
     10 C         140.0607  140.5781  169.0112 C.ar    1  UNL1        0.0844
     11 N         139.1194  139.6068  168.3628 N.ar    1  UNL1       -0.2119
     12 C         139.0086  139.5541  166.8677 C.ar    1  UNL1        0.2211
     13 O         138.0672  138.5828  166.2193 O.3     1  UNL1       -0.4563
     14 C         137.2815  137.6230  167.0626 C.3     1  UNL1        0.2542
     15 C         142.8789  138.5523  162.9978 C.ar    1  UNL1        0.1577
     16 C         142.2089  137.4818  162.1885 C.ar    1  UNL1        0.1388
     17 N         140.7119  137.3906  162.1585 N.ar    1  UNL1       -0.2072
     18 C         139.8851  138.3699  162.9377 C.ar    1  UNL1        0.2213
     19 C         140.5551  139.4405  163.7470 C.ar    1  UNL1        0.0405
     20 C         142.0520  139.5317  163.7771 C.ar    1  UNL1        0.0393
     21 C         145.0513  139.5735  163.9916 C.3     1  UNL1        0.2525
     22 O         144.3758  138.6436  163.0278 O.3     1  UNL1       -0.4699
     23 O         138.3882  138.2787  162.9077 O.3     1  UNL1       -0.4563
     24 C         137.6444  138.5698  161.6380 C.3     1  UNL1        0.2542
     25 C         138.7907  141.3464  163.8105 C.3     1  UNL1        0.1163
     26 O         137.6326  140.7470  164.5518 O.3     1  UNL1       -0.3820
     27 H         137.8630  139.8503  164.8411 H       1  UNL1        0.2107
     28 C         139.9488  141.9458  163.0693 C.ar    1  UNL1        0.0117
     29 C         140.0436  141.7974  161.5797 C.ar    1  UNL1        0.0559
     30 C         141.2017  142.3968  160.8384 C.ar    1  UNL1        0.2272
     31 N         142.2651  143.1445  161.5867 N.ar    1  UNL1       -0.1767
     32 C         142.1704  143.2929  163.0763 C.ar    1  UNL1        0.2272
     33 C         141.0122  142.6935  163.8176 C.ar    1  UNL1        0.0559
     34 O         141.2964  142.2484  159.3487 O.3     1  UNL1       -0.4561
     35 C         141.0805  140.9069  158.7134 C.3     1  UNL1        0.2542
     36 O         143.2338  144.0406  163.8248 O.3     1  UNL1       -0.4561
     37 C         144.2451  143.2907  164.6402 C.3     1  UNL1        0.2542
     38 C         137.8531  142.2730  163.0948 C.3     1  UNL1        0.0491
     39 C         137.3680  143.5201  163.7729 C.3     1  UNL1        0.0750
     40 N         138.3222  144.6447  164.0462 N.3     1  UNL1       -0.2702
     41 C         138.6585  145.0162  165.4600 C.3     1  UNL1        0.0897
     42 C         138.9401  145.3979  162.9056 C.3     1  UNL1        0.0897
@<TRIPOS>BOND
     1    21    22    1
     2    22    15    1
     3    15    16   ar
     4    16    17   ar
     5    17    18   ar
     6    18    23    1
     7    23    24    1
     8    18    19   ar
     9     1    19    1
    10     1     2    1
    11     2     3   ar
    12     3     4   ar
    13     4     5   ar
    14     5     6   ar
    15     6     7    1
    16     6     8   ar
    17     8     9   ar
    18     9    10   ar
    19    10    11   ar
    20    11    12   ar
    21    12    13    1
    22    13    14    1
    23     1    25    1
    24    25    26    1
    25    25    38    1
    26    38    39    1
    27    39    40    1
    28    40    41    1
    29    40    42    1
    30    25    28    1
    31    28    29   ar
    32    29    30   ar
    33    30    34    1
    34    34    35    1
    35    30    31   ar
    36    31    32   ar
    37    32    36    1
    38    36    37    1
    39    32    33   ar
    40    19    20   ar
    41    20    15   ar
    42    12     2   ar
    43    33    28   ar
    44    10     4   ar
    45    26    27    1
@<TRIPOS>MOLECULE
*****
 42 45 0 0 0
SMALL
GASTEIGER

@<TRIPOS>ATOM
      1 C         140.5430  142.2349  163.3639 C.3     1  UNL1        0.0823
      2 C         141.2884  142.2829  164.6647 C.ar    1  UNL1        0.0375
      3 C         140.6089  141.8634  165.9345 C.ar    1  UNL1        0.0023
      4 C         141.3542  141.9114  167.2353 C.ar    1  UNL1        0.0181
      5 C         140.6747  141.4919  168.5050 C.ar    1  UNL1        0.0082
      6 C         141.4201  141.5399  169.8058 C.ar    1  UNL1        0.0347
      7 BR        140.7406  141.1204  171.0755 Br      1  UNL1       -0.0490
      8 C         142.8450  142.0075  169.8369 C.ar    1  UNL1        0.0082
      9 C         143.5245  142.4270  168.5671 C.ar    1  UNL1        0.0197
     10 C         142.7792  142.3790  167.2664 C.ar    1  UNL1        0.0844
     11 N         143.4587  142.7985  165.9966 N.ar    1  UNL1       -0.2119
     12 C         142.7133  142.7505  164.6958 C.ar    1  UNL1        0.2211
     13 O         143.3928  143.1700  163.4261 O.3     1  UNL1       -0.4563
     14 C         144.8146  142.7676  163.1680 C.3     1  UNL1        0.2542
     15 C         141.0635  145.0037  160.5688 C.ar    1  UNL1        0.1577
     16 C         139.9966  145.9891  160.9437 C.ar    1  UNL1        0.1388
     17 N         139.1117  145.7230  162.1255 N.ar    1  UNL1       -0.2072
     18 C         139.2939  144.4717  162.9322 C.ar    1  UNL1        0.2213
     19 C         140.3608  143.4862  162.5572 C.ar    1  UNL1        0.0405
     20 C         141.2456  143.7522  161.3755 C.ar    1  UNL1        0.0393
     21 C         141.3455  145.6780  158.0757 C.3     1  UNL1        0.2525
     22 O         141.9483  145.2696  159.3871 O.3     1  UNL1       -0.4699
     23 O         138.4091  144.2057  164.1138 O.3     1  UNL1       -0.4563
     24 C         138.6504  144.9242  165.4082 C.3     1  UNL1        0.2542
     25 C         139.9797  140.9354  162.8698 C.3     1  UNL1        0.1163
     26 O         138.5901  141.4463  163.1104 O.3     1  UNL1       -0.3820
     27 H         138.6144  142.1452  163.7825 H       1  UNL1        0.2107
     28 C         141.3694  140.4245  162.6293 C.ar    1  UNL1        0.0117
     29 C         141.9864  140.5420  161.2672 C.ar    1  UNL1        0.0559
     30 C         143.3760  140.0311  161.0266 C.ar    1  UNL1        0.2272
     31 N         144.1487  139.4027  162.1482 N.ar    1  UNL1       -0.1767
     32 C         143.5317  139.2852  163.5104 C.ar    1  UNL1        0.2272
     33 C         142.1421  139.7961  163.7509 C.ar    1  UNL1        0.0559
     34 O         143.9930  140.1486  159.6644 O.3     1  UNL1       -0.4561
     35 C         143.8095  141.4037  158.8637 C.3     1  UNL1        0.2542
     36 O         144.3044  138.6568  164.6321 O.3     1  UNL1       -0.4561
     37 C         143.6446  138.4237  165.9589 C.3     1  UNL1        0.2542
     38 C         139.4165  139.6359  162.3758 C.3     1  UNL1        0.0491
     39 C         138.4288  138.8796  163.2140 C.3     1  UNL1        0.0750
     40 N         138.7641  138.5269  164.6329 N.3     1  UNL1       -0.2702
     41 C         139.7770  137.4588  164.9210 C.3     1  UNL1        0.0897
     42 C         138.0863  139.2424  165.7638 C.3     1  UNL1        0.0897
@<TRIPOS>BOND
     1    21    22    1
     2    22    15    1
     3    15    16   ar
     4    16    17   ar
     5    17    18   ar
     6    18    23    1
     7    23    24    1
     8    18    19   ar
     9     1    19    1
    10     1     2    1
    11     2     3   ar
    12     3     4   ar
    13     4     5   ar
    14     5     6   ar
    15     6     7    1
    16     6     8   ar
    17     8     9   ar
    18     9    10   ar
    19    10    11   ar
    20    11    12   ar
    21    12    13    1
    22    13    14    1
    23     1    25    1
    24    25    26    1
    25    25    38    1
    26    38    39    1
    27    39    40    1
    28    40    41    1
    29    40    42    1
    30    25    28    1
    31    28    29   ar
    32    29    30   ar
    33    30    34    1
    34    34    35    1
    35    30    31   ar
    36    31    32   ar
    37    32    36    1
    38    36    37    1
    39    32    33   ar
    40    19    20   ar
    41    20    15   ar
    42    12     2   ar
    43    33    28   ar
    44    10     4   ar
    45    26    27    1
@<TRIPOS>MOLECULE
*****
 42 45 0 0 0
SMALL
GASTEIGER

@<TRIPOS>ATOM
      1 C         141.4005  140.6086  163.5620 C.3     1  UNL1        0.0823
      2 C         141.6287  140.4602  165.0371 C.ar    1  UNL1        0.0375
      3 C         140.8281  141.2789  166.0060 C.ar    1  UNL1        0.0023
      4 C         141.0563  141.1305  167.4811 C.ar    1  UNL1        0.0181
      5 C         140.2557  141.9493  168.4500 C.ar    1  UNL1        0.0082
      6 C         140.4839  141.8008  169.9251 C.ar    1  UNL1        0.0347
      7 BR        139.6833  142.6195  170.8940 Br      1  UNL1       -0.0490
      8 C         141.5127  140.8337  170.4313 C.ar    1  UNL1        0.0082
      9 C         142.3133  140.0149  169.4624 C.ar    1  UNL1        0.0197
     10 C         142.0851  140.1633  167.9873 C.ar    1  UNL1        0.0844
     11 N         142.8857  139.3446  167.0184 N.ar    1  UNL1       -0.2119
     12 C         142.6575  139.4930  165.5433 C.ar    1  UNL1        0.2211
     13 O         143.4580  138.6743  164.5744 O.3     1  UNL1       -0.4563
     14 C         144.8777  139.0499  164.2690 C.3     1  UNL1        0.2542
     15 C         143.7902  143.4683  162.1976 C.ar    1  UNL1        0.1577
     16 C         144.4196  142.7763  161.0250 C.ar    1  UNL1        0.1388
     17 N         144.0426  141.3617  160.6981 N.ar    1  UNL1       -0.2072
     18 C         143.0363  140.6392  161.5437 C.ar    1  UNL1        0.2213
     19 C         142.4068  141.3312  162.7163 C.ar    1  UNL1        0.0405
     20 C         142.7838  142.7457  163.0433 C.ar    1  UNL1        0.0393
     21 C         143.7967  145.4694  163.8545 C.3     1  UNL1        0.2525
     22 O         144.1671  144.8829  162.5246 O.3     1  UNL1       -0.4699
     23 O         142.6593  139.2246  161.2168 O.3     1  UNL1       -0.4563
     24 C         143.7138  138.2471  160.7896 C.3     1  UNL1        0.2542
     25 C         140.1659  140.0345  162.9326 C.3     1  UNL1        0.1163
     26 O         140.6897  138.6490  163.1690 O.3     1  UNL1       -0.3820
     27 H         141.6568  138.6765  163.2393 H       1  UNL1        0.2107
     28 C         139.6421  141.4201  162.6962 C.ar    1  UNL1        0.0117
     29 C         139.8268  142.0737  161.3588 C.ar    1  UNL1        0.0559
     30 C         139.3030  143.4592  161.1224 C.ar    1  UNL1        0.2272
     31 N         138.5945  144.1912  162.2234 N.ar    1  UNL1       -0.1767
     32 C         138.4098  143.5375  163.5607 C.ar    1  UNL1        0.2272
     33 C         138.9336  142.1520  163.7971 C.ar    1  UNL1        0.0559
     34 O         139.4878  144.1128  159.7849 O.3     1  UNL1       -0.4561
     35 C         140.3639  145.3236  159.6565 C.3     1  UNL1        0.2542
     36 O         137.7012  144.2695  164.6618 O.3     1  UNL1       -0.4561
     37 C         138.4918  144.9871  165.7153 C.3     1  UNL1        0.2542
     38 C         138.9313  139.4604  162.3031 C.3     1  UNL1        0.0491
     39 C         139.0510  138.5007  161.1564 C.3     1  UNL1        0.0750
     40 N         139.0974  139.0164  159.7486 N.3     1  UNL1       -0.2702
     41 C         138.0799  140.0148  159.2817 C.3     1  UNL1        0.0897
     42 C         140.1613  138.5337  158.8078 C.3     1  UNL1        0.0897
@<TRIPOS>BOND
     1    21    22    1
     2    22    15    1
     3    15    16   ar
     4    16    17   ar
     5    17    18   ar
     6    18    23    1
     7    23    24    1
     8    18    19   ar
     9     1    19    1
    10     1     2    1
    11     2     3   ar
    12     3     4   ar
    13     4     5   ar
    14     5     6   ar
    15     6     7    1
    16     6     8   ar
    17     8     9   ar
    18     9    10   ar
    19    10    11   ar
    20    11    12   ar
    21    12    13    1
    22    13    14    1
    23     1    25    1
    24    25    26    1
    25    25    38    1
    26    38    39    1
    27    39    40    1
    28    40    41    1
    29    40    42    1
    30    25    28    1
    31    28    29   ar
    32    29    30   ar
    33    30    34    1
    34    34    35    1
    35    30    31   ar
    36    31    32   ar
    37    32    36    1
    38    36    37    1
    39    32    33   ar
    40    19    20   ar
    41    20    15   ar
    42    12     2   ar
    43    33    28   ar
    44    10     4   ar
    45    26    27    1
@<TRIPOS>MOLECULE
*****
 42 45 0 0 0
SMALL
GASTEIGER

@<TRIPOS>ATOM
      1 C         140.5569  142.2696  163.2460 C.3     1  UNL1        0.0823
      2 C         141.2713  142.2937  164.5648 C.ar    1  UNL1        0.0375
      3 C         140.5954  141.7618  165.7937 C.ar    1  UNL1        0.0023
      4 C         141.3097  141.7859  167.1125 C.ar    1  UNL1        0.0181
      5 C         140.6338  141.2540  168.3414 C.ar    1  UNL1        0.0082
      6 C         141.3482  141.2781  169.6602 C.ar    1  UNL1        0.0347
      7 BR        140.6723  140.7462  170.8891 Br      1  UNL1       -0.0490
      8 C         142.7384  141.8341  169.7500 C.ar    1  UNL1        0.0082
      9 C         143.4143  142.3661  168.5211 C.ar    1  UNL1        0.0197
     10 C         142.7000  142.3420  167.2024 C.ar    1  UNL1        0.0844
     11 N         143.3759  142.8739  165.9734 N.ar    1  UNL1       -0.2119
     12 C         142.6615  142.8498  164.6546 C.ar    1  UNL1        0.2211
     13 O         143.3374  143.3817  163.4257 O.3     1  UNL1       -0.4563
     14 C         143.8724  144.7829  163.4111 C.3     1  UNL1        0.2542
     15 C         140.9050  145.1657  160.5551 C.ar    1  UNL1        0.1577
     16 C         139.8294  146.1068  161.0106 C.ar    1  UNL1        0.1388
     17 N         138.9963  145.7687  162.2113 N.ar    1  UNL1       -0.2072
     18 C         139.2388  144.4897  162.9565 C.ar    1  UNL1        0.2213
     19 C         140.3144  143.5487  162.5009 C.ar    1  UNL1        0.0405
     20 C         141.1475  143.8867  161.3003 C.ar    1  UNL1        0.0393
     21 C         141.6947  144.6246  158.1399 C.3     1  UNL1        0.2525
     22 O         141.7382  145.5037  159.3544 O.3     1  UNL1       -0.4699
     23 O         138.4057  144.1517  164.1571 O.3     1  UNL1       -0.4563
     24 C         138.6145  144.8891  165.4466 C.3     1  UNL1        0.2542
     25 C         140.0850  140.9664  162.6724 C.3     1  UNL1        0.1163
     26 O         138.6701  141.3280  163.0149 O.3     1  UNL1       -0.3820
     27 H         138.6675  141.9719  163.7403 H       1  UNL1        0.2107
     28 C         141.4999  140.6049  162.3299 C.ar    1  UNL1        0.0117
     29 C         142.3814  139.9655  163.3616 C.ar    1  UNL1        0.0559
     30 C         143.7963  139.6039  163.0191 C.ar    1  UNL1        0.2272
     31 N         144.3298  139.8817  161.6450 N.ar    1  UNL1       -0.1767
     32 C         143.4483  140.5210  160.6134 C.ar    1  UNL1        0.2272
     33 C         142.0334  140.8826  160.9558 C.ar    1  UNL1        0.0559
     34 O         144.6777  138.9646  164.0508 O.3     1  UNL1       -0.4561
     35 C         144.1710  138.7607  165.4478 C.3     1  UNL1        0.2542
     36 O         143.9818  140.7988  159.2392 O.3     1  UNL1       -0.4561
     37 C         144.4414  142.1803  158.8782 C.3     1  UNL1        0.2542
     38 C         139.6132  139.6632  162.0988 C.3     1  UNL1        0.0491
     39 C         138.7050  138.7768  162.8986 C.3     1  UNL1        0.0750
     40 N         139.0683  138.4050  164.3056 N.3     1  UNL1       -0.2702
     41 C         138.2904  138.9722  165.4559 C.3     1  UNL1        0.0897
     42 C         140.2095  137.4659  164.5624 C.3     1  UNL1        0.0897
@<TRIPOS>BOND
     1    21    22    1
     2    22    15    1
     3    15    16   ar
     4    16    17   ar
     5    17    18   ar
     6    18    23    1
     7    23    24    1
     8    18    19   ar
     9     1    19    1
    10     1     2    1
    11     2     3   ar
    12     3     4   ar
    13     4     5   ar
    14     5     6   ar
    15     6     7    1
    16     6     8   ar
    17     8     9   ar
    18     9    10   ar
    19    10    11   ar
    20    11    12   ar
    21    12    13    1
    22    13    14    1
    23     1    25    1
    24    25    26    1
    25    25    38    1
    26    38    39    1
    27    39    40    1
    28    40    41    1
    29    40    42    1
    30    25    28    1
    31    28    29   ar
    32    29    30   ar
    33    30    34    1
    34    34    35    1
    35    30    31   ar
    36    31    32   ar
    37    32    36    1
    38    36    37    1
    39    32    33   ar
    40    19    20   ar
    41    20    15   ar
    42    12     2   ar
    43    33    28   ar
    44    10     4   ar
    45    26    27    1
@<TRIPOS>MOLECULE
*****
 42 45 0 0 0
SMALL
GASTEIGER

@<TRIPOS>ATOM
      1 C         141.4253  140.6302  163.4900 C.3     1  UNL1        0.0823
      2 C         141.6573  140.4682  164.9632 C.ar    1  UNL1        0.0375
      3 C         140.8682  141.2873  165.9412 C.ar    1  UNL1        0.0023
      4 C         141.1002  141.1253  167.4142 C.ar    1  UNL1        0.0181
      5 C         140.3111  141.9443  168.3923 C.ar    1  UNL1        0.0082
      6 C         140.5431  141.7824  169.8654 C.ar    1  UNL1        0.0347
      7 BR        139.7541  142.6014  170.8434 Br      1  UNL1       -0.0490
      8 C         141.5642  140.8014  170.3604 C.ar    1  UNL1        0.0082
      9 C         142.3533  139.9824  169.3824 C.ar    1  UNL1        0.0197
     10 C         142.1213  140.1443  167.9093 C.ar    1  UNL1        0.0844
     11 N         142.9104  139.3253  166.9313 N.ar    1  UNL1       -0.2119
     12 C         142.6784  139.4873  165.4582 C.ar    1  UNL1        0.2211
     13 O         143.4674  138.6683  164.4801 O.3     1  UNL1       -0.4563
     14 C         144.8823  139.0458  164.1552 C.3     1  UNL1        0.2542
     15 C         143.8567  143.4722  162.1630 C.ar    1  UNL1        0.1577
     16 C         144.4501  142.7992  160.9610 C.ar    1  UNL1        0.1388
     17 N         144.0351  141.4031  160.6019 N.ar    1  UNL1       -0.2072
     18 C         143.0268  140.6801  161.4449 C.ar    1  UNL1        0.2213
     19 C         142.4335  141.3532  162.6470 C.ar    1  UNL1        0.0405
     20 C         142.8484  142.7492  163.0061 C.ar    1  UNL1        0.0393
     21 C         143.8313  145.4702  163.8235 C.3     1  UNL1        0.2525
     22 O         144.2717  144.8682  162.5221 O.3     1  UNL1       -0.4699
     23 O         142.6119  139.2841  161.0859 O.3     1  UNL1       -0.4563
     24 C         143.6494  138.2630  160.7239 C.3     1  UNL1        0.2542
     25 C         140.1850  140.0692  162.8600 C.3     1  UNL1        0.1163
     26 O         140.7114  138.6792  163.0614 O.3     1  UNL1       -0.3820
     27 H         141.6791  138.7057  163.1232 H       1  UNL1        0.2107
     28 C         139.6585  141.4593  162.6586 C.ar    1  UNL1        0.0117
     29 C         138.9326  142.1549  163.7717 C.ar    1  UNL1        0.0559
     30 C         138.4061  143.5450  163.5704 C.ar    1  UNL1        0.2272
     31 N         138.6056  144.2394  162.2559 N.ar    1  UNL1       -0.1767
     32 C         139.3315  143.5438  161.1428 C.ar    1  UNL1        0.2272
     33 C         139.8580  142.1537  161.3442 C.ar    1  UNL1        0.0559
     34 O         137.6801  144.2406  164.6836 O.3     1  UNL1       -0.4561
     35 C         138.4513  144.9967  165.7246 C.3     1  UNL1        0.2542
     36 O         139.5311  144.2382  159.8282 O.3     1  UNL1       -0.4561
     37 C         140.8502  144.8776  159.5104 C.3     1  UNL1        0.2542
     38 C         138.9447  139.5082  162.2300 C.3     1  UNL1        0.0491
     39 C         139.0549  138.5362  161.0928 C.3     1  UNL1        0.0750
     40 N         139.0669  139.0351  159.6783 N.3     1  UNL1       -0.2702
     41 C         138.0507  140.0432  159.2299 C.3     1  UNL1        0.0897
     42 C         140.0951  138.5259  158.7120 C.3     1  UNL1        0.0897
@<TRIPOS>BOND
     1    21    22    1
     2    22    15    1
     3    15    16   ar
     4    16    17   ar
     5    17    18   ar
     6    18    23    1
     7    23    24    1
     8    18    19   ar
     9     1    19    1
    10     1     2    1
    11     2     3   ar
    12     3     4   ar
    13     4     5   ar
    14     5     6   ar
    15     6     7    1
    16     6     8   ar
    17     8     9   ar
    18     9    10   ar
    19    10    11   ar
    20    11    12   ar
    21    12    13    1
    22    13    14    1
    23     1    25    1
    24    25    26    1
    25    25    38    1
    26    38    39    1
    27    39    40    1
    28    40    41    1
    29    40    42    1
    30    25    28    1
    31    28    29   ar
    32    29    30   ar
    33    30    34    1
    34    34    35    1
    35    30    31   ar
    36    31    32   ar
    37    32    36    1
    38    36    37    1
    39    32    33   ar
    40    19    20   ar
    41    20    15   ar
    42    12     2   ar
    43    33    28   ar
    44    10     4   ar
    45    26    27    1
@<TRIPOS>MOLECULE
*****
 42 45 0 0 0
SMALL
GASTEIGER

@<TRIPOS>ATOM
      1 C         141.7171  141.6176  162.5029 C.3     1  UNL1        0.0823
      2 C         141.3775  141.9437  163.9272 C.ar    1  UNL1        0.0375
      3 C         142.4385  141.8767  164.9854 C.ar    1  UNL1        0.0023
      4 C         142.0990  142.2028  166.4096 C.ar    1  UNL1        0.0181
      5 C         143.1600  142.1358  167.4678 C.ar    1  UNL1        0.0082
      6 C         142.8204  142.4619  168.8920 C.ar    1  UNL1        0.0347
      7 BR        143.8814  142.3949  169.9502 Br      1  UNL1       -0.0490
      8 C         141.4198  142.8549  169.2580 C.ar    1  UNL1        0.0082
      9 C         140.3588  142.9219  168.1998 C.ar    1  UNL1        0.0197
     10 C         140.6984  142.5958  166.7756 C.ar    1  UNL1        0.0844
     11 N         139.6374  142.6628  165.7174 N.ar    1  UNL1       -0.2119
     12 C         139.9770  142.3367  164.2932 C.ar    1  UNL1        0.2211
     13 O         138.9160  142.4037  163.2350 O.3     1  UNL1       -0.4563
     14 C         137.5347  141.8958  163.5246 C.3     1  UNL1        0.2542
     15 C         140.0722  143.5753  159.4679 C.ar    1  UNL1        0.1577
     16 C         141.0636  144.6843  159.2752 C.ar    1  UNL1        0.1388
     17 N         142.2729  144.7711  160.1585 N.ar    1  UNL1       -0.2072
     18 C         142.4907  143.7489  161.2344 C.ar    1  UNL1        0.2213
     19 C         141.4993  142.6399  161.4271 C.ar    1  UNL1        0.0405
     20 C         140.2900  142.5530  160.5438 C.ar    1  UNL1        0.0393
     21 C         139.0266  143.3835  157.0973 C.3     1  UNL1        0.2525
     22 O         138.8629  143.4885  158.5846 O.3     1  UNL1       -0.4699
     23 O         143.6999  143.8357  162.1176 O.3     1  UNL1       -0.4563
     24 C         143.7788  144.8921  163.1796 C.3     1  UNL1        0.2542
     25 C         142.2745  140.2693  162.1546 C.3     1  UNL1        0.1163
     26 O         143.6436  140.8685  162.0260 O.3     1  UNL1       -0.3820
     27 H         143.5650  141.8159  161.8332 H       1  UNL1        0.2107
     28 C         140.9054  139.6701  162.2833 C.ar    1  UNL1        0.0117
     29 C         139.9420  139.7474  161.1363 C.ar    1  UNL1        0.0559
     30 C         138.5730  139.1482  161.2650 C.ar    1  UNL1        0.2272
     31 N         138.1673  138.4716  162.5407 N.ar    1  UNL1       -0.1767
     32 C         139.1307  138.3943  163.6878 C.ar    1  UNL1        0.2272
     33 C         140.4998  138.9935  163.5591 C.ar    1  UNL1        0.0559
     34 O         137.6095  139.2256  160.1178 O.3     1  UNL1       -0.4561
     35 C         137.8418  140.2079  159.0083 C.3     1  UNL1        0.2542
     36 O         138.7250  137.7177  164.9637 O.3     1  UNL1       -0.4561
     37 C         138.3105  138.5384  166.1488 C.3     1  UNL1        0.2542
     38 C         142.8319  138.9210  161.8064 C.3     1  UNL1        0.0491
     39 C         143.8581  138.7915  160.7199 C.3     1  UNL1        0.0750
     40 N         143.4739  139.0416  159.2917 N.3     1  UNL1       -0.2702
     41 C         143.8952  140.3112  158.6130 C.3     1  UNL1        0.0897
     42 C         142.6682  138.0222  158.5422 C.3     1  UNL1        0.0897
@<TRIPOS>BOND
     1    21    22    1
     2    22    15    1
     3    15    16   ar
     4    16    17   ar
     5    17    18   ar
     6    18    23    1
     7    23    24    1
     8    18    19   ar
     9     1    19    1
    10     1     2    1
    11     2     3   ar
    12     3     4   ar
    13     4     5   ar
    14     5     6   ar
    15     6     7    1
    16     6     8   ar
    17     8     9   ar
    18     9    10   ar
    19    10    11   ar
    20    11    12   ar
    21    12    13    1
    22    13    14    1
    23     1    25    1
    24    25    26    1
    25    25    38    1
    26    38    39    1
    27    39    40    1
    28    40    41    1
    29    40    42    1
    30    25    28    1
    31    28    29   ar
    32    29    30   ar
    33    30    34    1
    34    34    35    1
    35    30    31   ar
    36    31    32   ar
    37    32    36    1
    38    36    37    1
    39    32    33   ar
    40    19    20   ar
    41    20    15   ar
    42    12     2   ar
    43    33    28   ar
    44    10     4   ar
    45    26    27    1
@<TRIPOS>MOLECULE
*****
 42 45 0 0 0
SMALL
GASTEIGER

@<TRIPOS>ATOM
      1 C         141.4418  142.4965  162.4863 C.3     1  UNL1        0.0823
      2 C         141.9052  142.4034  163.9100 C.ar    1  UNL1        0.0375
      3 C         141.0508  141.7160  164.9334 C.ar    1  UNL1        0.0023
      4 C         141.5142  141.6229  166.3569 C.ar    1  UNL1        0.0181
      5 C         140.6598  140.9354  167.3804 C.ar    1  UNL1        0.0082
      6 C         141.1232  140.8423  168.8040 C.ar    1  UNL1        0.0347
      7 BR        140.2688  140.1549  169.8274 Br      1  UNL1       -0.0490
      8 C         142.4410  141.4366  169.2041 C.ar    1  UNL1        0.0082
      9 C         143.2955  142.1240  168.1807 C.ar    1  UNL1        0.0197
     10 C         142.8321  142.2172  166.7571 C.ar    1  UNL1        0.0844
     11 N         143.6865  142.9046  165.7337 N.ar    1  UNL1       -0.2119
     12 C         143.2230  142.9977  164.3101 C.ar    1  UNL1        0.2211
     13 O         144.0775  143.6851  163.2867 O.3     1  UNL1       -0.4563
     14 C         144.0183  145.1767  163.1399 C.3     1  UNL1        0.2542
     15 C         143.7256  140.1344  160.2605 C.ar    1  UNL1        0.1577
     16 C         144.1092  141.0717  159.1540 C.ar    1  UNL1        0.1388
     17 N         143.6036  142.4840  159.1583 N.ar    1  UNL1       -0.2072
     18 C         142.7145  142.9589  160.2691 C.ar    1  UNL1        0.2213
     19 C         142.3309  142.0216  161.3756 C.ar    1  UNL1        0.0405
     20 C         142.8364  140.6094  161.3713 C.ar    1  UNL1        0.0393
     21 C         143.8915  137.8006  161.3899 C.3     1  UNL1        0.2525
     22 O         144.2312  138.7222  160.2562 O.3     1  UNL1       -0.4699
     23 O         142.2089  144.3711  160.2733 O.3     1  UNL1       -0.4563
     24 C         141.3193  144.8526  159.1657 C.3     1  UNL1        0.2542
     25 C         140.0892  143.0646  162.1736 C.3     1  UNL1        0.1163
     26 O         140.5451  144.4121  162.6493 O.3     1  UNL1       -0.3820
     27 H         141.2833  144.3035  163.2691 H       1  UNL1        0.2107
     28 C         139.6332  141.7170  161.6979 C.ar    1  UNL1        0.0117
     29 C         139.3216  141.4998  160.2469 C.ar    1  UNL1        0.0559
     30 C         138.8657  140.1523  159.7712 C.ar    1  UNL1        0.2272
     31 N         138.7214  139.0220  160.7466 N.ar    1  UNL1       -0.1767
     32 C         139.0330  139.2392  162.1977 C.ar    1  UNL1        0.2272
     33 C         139.4889  140.5867  162.6733 C.ar    1  UNL1        0.0559
     34 O         138.5541  139.9351  158.3200 O.3     1  UNL1       -0.4561
     35 C         137.6529  140.8905  157.5953 C.3     1  UNL1        0.2542
     36 O         138.8886  138.1088  163.1732 O.3     1  UNL1       -0.4561
     37 C         138.8894  138.3857  164.6474 C.3     1  UNL1        0.2542
     38 C         138.7366  143.6326  161.8608 C.3     1  UNL1        0.0491
     39 C         137.9850  144.3999  162.9080 C.3     1  UNL1        0.0750
     40 N         138.0422  143.9647  164.3423 N.3     1  UNL1       -0.2702
     41 C         137.5663  142.5962  164.7304 C.3     1  UNL1        0.0897
     42 C         138.5754  144.8981  165.3886 C.3     1  UNL1        0.0897
@<TRIPOS>BOND
     1    21    22    1
     2    22    15    1
     3    15    16   ar
     4    16    17   ar
     5    17    18   ar
     6    18    23    1
     7    23    24    1
     8    18    19   ar
     9     1    19    1
    10     1     2    1
    11     2     3   ar
    12     3     4   ar
    13     4     5   ar
    14     5     6   ar
    15     6     7    1
    16     6     8   ar
    17     8     9   ar
    18     9    10   ar
    19    10    11   ar
    20    11    12   ar
    21    12    13    1
    22    13    14    1
    23     1    25    1
    24    25    26    1
    25    25    38    1
    26    38    39    1
    27    39    40    1
    28    40    41    1
    29    40    42    1
    30    25    28    1
    31    28    29   ar
    32    29    30   ar
    33    30    34    1
    34    34    35    1
    35    30    31   ar
    36    31    32   ar
    37    32    36    1
    38    36    37    1
    39    32    33   ar
    40    19    20   ar
    41    20    15   ar
    42    12     2   ar
    43    33    28   ar
    44    10     4   ar
    45    26    27    1
@<TRIPOS>MOLECULE
*****
 42 45 0 0 0
SMALL
GASTEIGER

@<TRIPOS>ATOM
      1 C         141.6762  140.9198  162.7112 C.3     1  UNL1        0.0823
      2 C         141.5656  140.6755  164.1870 C.ar    1  UNL1        0.0375
      3 C         141.2396  141.8099  165.1127 C.ar    1  UNL1        0.0023
      4 C         141.1290  141.5656  166.5885 C.ar    1  UNL1        0.0181
      5 C         140.8030  142.7000  167.5141 C.ar    1  UNL1        0.0082
      6 C         140.6924  142.4556  168.9900 C.ar    1  UNL1        0.0347
      7 BR        140.3663  143.5900  169.9157 Br      1  UNL1       -0.0490
      8 C         140.9078  141.0769  169.5402 C.ar    1  UNL1        0.0082
      9 C         141.2338  139.9425  168.6145 C.ar    1  UNL1        0.0197
     10 C         141.3444  140.1868  167.1387 C.ar    1  UNL1        0.0844
     11 N         141.6704  139.0524  166.2131 N.ar    1  UNL1       -0.2119
     12 C         141.7810  139.2968  164.7372 C.ar    1  UNL1        0.2211
     13 O         142.1071  138.1623  163.8115 O.3     1  UNL1       -0.4563
     14 C         141.1046  137.0707  163.5810 C.3     1  UNL1        0.2542
     15 C         140.5905  138.6903  159.6128 C.ar    1  UNL1        0.1577
     16 C         139.1126  138.5825  159.8451 C.ar    1  UNL1        0.1388
     17 N         138.4891  139.2539  161.0329 N.ar    1  UNL1       -0.2072
     18 C         139.3437  140.0330  161.9882 C.ar    1  UNL1        0.2213
     19 C         140.8217  140.1407  161.7558 C.ar    1  UNL1        0.0405
     20 C         141.4451  139.4694  160.5682 C.ar    1  UNL1        0.0393
     21 C         142.7067  137.9790  158.2841 C.3     1  UNL1        0.2525
     22 O         141.2139  138.0189  158.4251 O.3     1  UNL1       -0.4699
     23 O         138.7203  140.7043  163.1759 O.3     1  UNL1       -0.4563
     24 C         137.4122  141.4238  163.0298 C.3     1  UNL1        0.2542
     25 C         142.6414  141.9433  162.1907 C.3     1  UNL1        0.1163
     26 O         143.7896  141.0877  162.6374 O.3     1  UNL1       -0.3820
     27 H         143.4972  140.5023  163.3534 H       1  UNL1        0.2107
     28 C         141.4933  142.7990  161.7440 C.ar    1  UNL1        0.0117
     29 C         141.1988  142.9551  160.2816 C.ar    1  UNL1        0.0559
     30 C         140.0506  143.8108  159.8349 C.ar    1  UNL1        0.2272
     31 N         139.1969  144.5103  160.8507 N.ar    1  UNL1       -0.1767
     32 C         139.4914  144.3541  162.3131 C.ar    1  UNL1        0.2272
     33 C         140.6396  143.4985  162.7598 C.ar    1  UNL1        0.0559
     34 O         139.7561  143.9669  158.3723 O.3     1  UNL1       -0.4561
     35 C         140.5673  144.9161  157.5411 C.3     1  UNL1        0.2542
     36 O         138.6377  145.0537  163.3290 O.3     1  UNL1       -0.4561
     37 C         138.7472  144.6887  164.7798 C.3     1  UNL1        0.2542
     38 C         143.6066  142.9668  161.6702 C.3     1  UNL1        0.0491
     39 C         144.6239  143.5744  162.5901 C.3     1  UNL1        0.0750
     40 N         144.2101  144.0677  163.9449 N.3     1  UNL1       -0.2702
     41 C         144.5938  143.2968  165.1731 C.3     1  UNL1        0.0897
     42 C         143.4125  145.3318  164.0715 C.3     1  UNL1        0.0897
@<TRIPOS>BOND
     1    21    22    1
     2    22    15    1
     3    15    16   ar
     4    16    17   ar
     5    17    18   ar
     6    18    23    1
     7    23    24    1
     8    18    19   ar
     9     1    19    1
    10     1     2    1
    11     2     3   ar
    12     3     4   ar
    13     4     5   ar
    14     5     6   ar
    15     6     7    1
    16     6     8   ar
    17     8     9   ar
    18     9    10   ar
    19    10    11   ar
    20    11    12   ar
    21    12    13    1
    22    13    14    1
    23     1    25    1
    24    25    26    1
    25    25    38    1
    26    38    39    1
    27    39    40    1
    28    40    41    1
    29    40    42    1
    30    25    28    1
    31    28    29   ar
    32    29    30   ar
    33    30    34    1
    34    34    35    1
    35    30    31   ar
    36    31    32   ar
    37    32    36    1
    38    36    37    1
    39    32    33   ar
    40    19    20   ar
    41    20    15   ar
    42    12     2   ar
    43    33    28   ar
    44    10     4   ar
    45    26    27    1
@<TRIPOS>MOLECULE
*****
 42 45 0 0 0
SMALL
GASTEIGER

@<TRIPOS>ATOM
      1 C         141.0884  142.1328  164.6482 C.3     1  UNL1        0.0823
      2 C         141.9979  142.2376  163.4600 C.ar    1  UNL1        0.0375
      3 C         141.7012  141.4524  162.2168 C.ar    1  UNL1        0.0023
      4 C         142.6107  141.5572  161.0287 C.ar    1  UNL1        0.0181
      5 C         142.3140  140.7721  159.7855 C.ar    1  UNL1        0.0082
      6 C         143.2236  140.8769  158.5973 C.ar    1  UNL1        0.0347
      7 BR        142.9269  140.0917  157.3541 Br      1  UNL1       -0.0490
      8 C         144.4298  141.7668  158.6523 C.ar    1  UNL1        0.0082
      9 C         144.7265  142.5519  159.8955 C.ar    1  UNL1        0.0197
     10 C         143.8170  142.4471  161.0836 C.ar    1  UNL1        0.0844
     11 N         144.1137  143.2323  162.3268 N.ar    1  UNL1       -0.2119
     12 C         143.2041  143.1275  163.5150 C.ar    1  UNL1        0.2211
     13 O         143.5009  143.9126  164.7582 O.3     1  UNL1       -0.4563
     14 C         144.7115  143.5852  165.5810 C.3     1  UNL1        0.2542
     15 C         142.0017  142.0296  168.5090 C.ar    1  UNL1        0.1577
     16 C         142.7031  140.7068  168.5991 C.ar    1  UNL1        0.1388
     17 N         142.8662  139.8593  167.3722 N.ar    1  UNL1       -0.2072
     18 C         142.3280  140.3346  166.0553 C.ar    1  UNL1        0.2213
     19 C         141.6266  141.6574  165.9651 C.ar    1  UNL1        0.0405
     20 C         141.4634  142.5049  167.1919 C.ar    1  UNL1        0.0393
     21 C         140.6091  143.7191  169.9075 C.3     1  UNL1        0.2525
     22 O         141.8385  142.8771  169.7357 O.3     1  UNL1       -0.4699
     23 O         142.4912  139.4871  164.8285 O.3     1  UNL1       -0.4563
     24 C         143.8641  139.1434  164.3315 C.3     1  UNL1        0.2542
     25 C         139.6406  142.5033  164.5194 C.3     1  UNL1        0.1163
     26 O         140.0244  143.9432  164.3478 O.3     1  UNL1       -0.3820
     27 H         140.8940  144.0961  164.7495 H       1  UNL1        0.2107
     28 C         139.2568  141.0635  164.6911 C.ar    1  UNL1        0.0117
     29 C         138.7983  140.5639  166.0291 C.ar    1  UNL1        0.0559
     30 C         138.4145  139.1240  166.2007 C.ar    1  UNL1        0.2272
     31 N         138.4892  138.1837  165.0344 N.ar    1  UNL1       -0.1767
     32 C         138.9476  138.6833  163.6965 C.ar    1  UNL1        0.2272
     33 C         139.3314  140.1232  163.5248 C.ar    1  UNL1        0.0559
     34 O         137.9561  138.6244  167.5388 O.3     1  UNL1       -0.4561
     35 C         136.8508  137.6138  167.6235 C.3     1  UNL1        0.2542
     36 O         139.0223  137.7431  162.5301 O.3     1  UNL1       -0.4561
     37 C         139.9400  138.0434  161.3822 C.3     1  UNL1        0.2542
     38 C         138.1928  142.8739  164.3906 C.3     1  UNL1        0.0491
     39 C         137.7595  143.8513  163.3384 C.3     1  UNL1        0.0750
     40 N         138.3911  143.8181  161.9783 N.3     1  UNL1       -0.2702
     41 C         139.2249  144.9737  161.5101 C.3     1  UNL1        0.0897
     42 C         138.1889  142.6291  161.0863 C.3     1  UNL1        0.0897
@<TRIPOS>BOND
     1    21    22    1
     2    22    15    1
     3    15    16   ar
     4    16    17   ar
     5    17    18   ar
     6    18    23    1
     7    23    24    1
     8    18    19   ar
     9     1    19    1
    10     1     2    1
    11     2     3   ar
    12     3     4   ar
    13     4     5   ar
    14     5     6   ar
    15     6     7    1
    16     6     8   ar
    17     8     9   ar
    18     9    10   ar
    19    10    11   ar
    20    11    12   ar
    21    12    13    1
    22    13    14    1
    23     1    25    1
    24    25    26    1
    25    25    38    1
    26    38    39    1
    27    39    40    1
    28    40    41    1
    29    40    42    1
    30    25    28    1
    31    28    29   ar
    32    29    30   ar
    33    30    34    1
    34    34    35    1
    35    30    31   ar
    36    31    32   ar
    37    32    36    1
    38    36    37    1
    39    32    33   ar
    40    19    20   ar
    41    20    15   ar
    42    12     2   ar
    43    33    28   ar
    44    10     4   ar
    45    26    27    1
