@<TRIPOS>MOLECULE
*****
 35 38 0 0 0
SMALL
GASTEIGER

@<TRIPOS>ATOM
      1 N         138.9630  140.0981  165.7102 N.3     1  UNL1       -0.2691
      2 C         138.0788  140.9897  164.8897 C.3     1  UNL1        0.0724
      3 C         138.5493  142.3598  164.5003 C.3     1  UNL1        0.0188
      4 C         139.9040  142.8382  164.9314 C.3     1  UNL1        0.0188
      5 C         140.7883  141.9466  165.7519 C.3     1  UNL1        0.0188
      6 C         140.3178  140.5765  166.1413 C.3     1  UNL1        0.0724
      7 C         138.4925  138.7281  166.0995 C.3     1  UNL1        0.0987
      8 C         137.7346  138.5308  167.3789 C.2     1  UNL1        0.0652
      9 O         138.1662  139.2468  168.6243 O.co2   1  UNL1       -0.5478
     10 O         136.5452  137.6176  167.4129 O.co2   1  UNL1       -0.5478
     11 C         138.7799  137.5553  165.2096 C.3     1  UNL1        0.0480
     12 C         139.6816  138.4877  161.4589 C.ar    1  UNL1        0.0681
     13 C         141.1379  138.1307  161.4204 C.ar    1  UNL1        0.0103
     14 C         141.8083  137.5819  162.6449 C.ar    1  UNL1        0.0004
     15 C         141.0223  137.3901  163.9080 C.ar    1  UNL1       -0.0042
     16 C         139.5659  137.7471  163.9465 C.ar    1  UNL1       -0.0198
     17 C         138.8956  138.2959  162.7220 C.ar    1  UNL1        0.0061
     18 N         138.3409  139.5853  159.0099 N.1     1  UNL1       -0.1908
     19 C         139.0112  139.0365  160.2344 C.1     1  UNL1        0.1004
     20 C         140.3745  144.2082  164.5420 C.3     1  UNL1        0.0721
     21 N         140.6951  144.5119  163.1085 N.3     1  UNL1       -0.2724
     22 C         139.8541  145.4899  162.3428 C.3     1  UNL1        0.0758
     23 C         140.1746  145.7935  160.9092 C.3     1  UNL1        0.0609
     24 C         141.3362  145.1192  160.2414 C.3     1  UNL1        0.1687
     25 C         142.1771  144.1412  161.0070 C.3     1  UNL1        0.0609
     26 C         141.8566  143.8375  162.4406 C.3     1  UNL1        0.0758
     27 O         141.6567  145.4228  158.8079 O.3     1  UNL1       -0.4790
     28 C         140.6012  145.2656  157.7537 C.ar    1  UNL1        0.1393
     29 C         139.9572  143.9294  157.5305 C.ar    1  UNL1        0.0378
     30 C         138.9017  143.7722  156.4764 C.ar    1  UNL1        0.0154
     31 C         138.4901  144.9513  155.6455 C.ar    1  UNL1        0.0684
     32 CL        137.4345  144.7941  154.5914 Cl      1  UNL1       -0.0814
     33 C         139.1340  146.2876  155.8687 C.ar    1  UNL1        0.0712
     34 CL        138.7224  147.4666  155.0378 Cl      1  UNL1       -0.0813
     35 C         140.1896  146.4447  156.9229 C.ar    1  UNL1        0.0491
@<TRIPOS>UNITY_ATOM_ATTR
9 1
charge -1
@<TRIPOS>BOND
     1    18    19    3
     2    19    12    1
     3    12    13   ar
     4    13    14   ar
     5    14    15   ar
     6    15    16   ar
     7    16    11    1
     8     7    11    1
     9     7     8    1
    10     8     9   ar
    11     8    10   ar
    12     7     1    1
    13     1     2    1
    14     2     3    1
    15     3     4    1
    16     4    20    1
    17    20    21    1
    18    21    22    1
    19    22    23    1
    20    23    24    1
    21    24    27    1
    22    27    28    1
    23    28    29   ar
    24    29    30   ar
    25    30    31   ar
    26    31    32    1
    27    31    33   ar
    28    33    34    1
    29    33    35   ar
    30    24    25    1
    31    25    26    1
    32     4     5    1
    33     5     6    1
    34    16    17   ar
    35    17    12   ar
    36     6     1    1
    37    26    21    1
    38    35    28   ar
@<TRIPOS>MOLECULE
*****
 35 38 0 0 0
SMALL
GASTEIGER

@<TRIPOS>ATOM
      1 N         140.5651  140.5767  167.4105 N.3     1  UNL1       -0.2691
      2 C         140.5697  142.0336  167.0534 C.3     1  UNL1        0.0724
      3 C         141.7324  142.6196  166.3086 C.3     1  UNL1        0.0188
      4 C         142.8905  141.7488  165.9209 C.3     1  UNL1        0.0188
      5 C         142.8860  140.2919  166.2780 C.3     1  UNL1        0.0188
      6 C         141.7233  139.7058  167.0228 C.3     1  UNL1        0.0724
      7 C         139.4024  139.9907  168.1553 C.3     1  UNL1        0.0987
      8 C         139.2773  140.2003  169.6354 C.2     1  UNL1        0.0652
      9 O         138.0039  139.8360  170.3395 O.co2   1  UNL1       -0.5478
     10 O         140.4256  140.7741  170.4113 O.co2   1  UNL1       -0.5478
     11 C         138.3649  139.1952  167.4202 C.3     1  UNL1        0.0480
     12 C         138.2026  140.1259  163.5656 C.ar    1  UNL1        0.0681
     13 C         138.5775  138.8146  162.9413 C.ar    1  UNL1        0.0103
     14 C         138.8816  137.6301  163.8100 C.ar    1  UNL1        0.0004
     15 C         138.8107  137.7570  165.3029 C.ar    1  UNL1       -0.0042
     16 C         138.4358  139.0683  165.9272 C.ar    1  UNL1       -0.0198
     17 C         138.1317  140.2528  165.0585 C.ar    1  UNL1        0.0061
     18 N         137.5944  142.4949  161.8283 N.1     1  UNL1       -0.1908
     19 C         137.8985  141.3104  162.6970 C.1     1  UNL1        0.1004
     20 C         144.0532  142.3348  165.1761 C.3     1  UNL1        0.0721
     21 N         143.9425  142.6041  163.7047 N.3     1  UNL1       -0.2724
     22 C         142.8199  143.4489  163.1792 C.3     1  UNL1        0.0758
     23 C         142.7092  143.7182  161.7077 C.3     1  UNL1        0.0609
     24 C         143.7210  143.1426  160.7617 C.3     1  UNL1        0.1687
     25 C         144.8436  142.2978  161.2872 C.3     1  UNL1        0.0609
     26 C         144.9543  142.0285  162.7587 C.3     1  UNL1        0.0758
     27 O         143.6103  143.4119  159.2903 O.3     1  UNL1       -0.4790
     28 C         143.9984  142.3517  158.3025 C.ar    1  UNL1        0.1393
     29 C         145.3191  142.4322  157.5961 C.ar    1  UNL1        0.0378
     30 C         145.7072  141.3721  156.6083 C.ar    1  UNL1        0.0154
     31 C         144.7745  140.2315  156.3270 C.ar    1  UNL1        0.0684
     32 CL        145.1625  139.1714  155.3393 Cl      1  UNL1       -0.0814
     33 C         143.4537  140.1510  157.0335 C.ar    1  UNL1        0.0712
     34 CL        142.5210  139.0104  156.7523 Cl      1  UNL1       -0.0813
     35 C         143.0657  141.2111  158.0213 C.ar    1  UNL1        0.0491
@<TRIPOS>UNITY_ATOM_ATTR
9 1
charge -1
@<TRIPOS>BOND
     1    18    19    3
     2    19    12    1
     3    12    13   ar
     4    13    14   ar
     5    14    15   ar
     6    15    16   ar
     7    16    11    1
     8     7    11    1
     9     7     8    1
    10     8     9   ar
    11     8    10   ar
    12     7     1    1
    13     1     2    1
    14     2     3    1
    15     3     4    1
    16     4    20    1
    17    20    21    1
    18    21    22    1
    19    22    23    1
    20    23    24    1
    21    24    27    1
    22    27    28    1
    23    28    29   ar
    24    29    30   ar
    25    30    31   ar
    26    31    32    1
    27    31    33   ar
    28    33    34    1
    29    33    35   ar
    30    24    25    1
    31    25    26    1
    32     4     5    1
    33     5     6    1
    34    16    17   ar
    35    17    12   ar
    36     6     1    1
    37    26    21    1
    38    35    28   ar
@<TRIPOS>MOLECULE
*****
 35 38 0 0 0
SMALL
GASTEIGER

@<TRIPOS>ATOM
      1 N         140.1844  139.9309  167.1470 N.3     1  UNL1       -0.2691
      2 C         141.4941  139.4202  166.6237 C.3     1  UNL1        0.0724
      3 C         141.5186  138.4647  165.4677 C.3     1  UNL1        0.0188
      4 C         140.2334  138.0199  164.8349 C.3     1  UNL1        0.0188
      5 C         138.9236  138.5305  165.3582 C.3     1  UNL1        0.0188
      6 C         138.8991  139.4860  166.5143 C.3     1  UNL1        0.0724
      7 C         140.1599  140.8864  168.3030 C.3     1  UNL1        0.0987
      8 C         139.7999  140.3957  169.6741 C.2     1  UNL1        0.0652
      9 O         138.5690  140.9140  170.3569 O.co2   1  UNL1       -0.5478
     10 O         140.6708  139.3868  170.3623 O.co2   1  UNL1       -0.5478
     11 C         140.4954  142.3324  168.0881 C.3     1  UNL1        0.0480
     12 C         140.2381  143.8228  164.4189 C.ar    1  UNL1        0.0681
     13 C         141.6766  143.7839  163.9957 C.ar    1  UNL1        0.0103
     14 C         142.7214  143.2613  164.9366 C.ar    1  UNL1        0.0004
     15 C         142.3277  142.7775  166.3007 C.ar    1  UNL1       -0.0042
     16 C         140.8892  142.8163  166.7239 C.ar    1  UNL1       -0.0198
     17 C         139.8444  143.3389  165.7830 C.ar    1  UNL1        0.0061
     18 N         138.1486  144.8681  162.5371 N.1     1  UNL1       -0.1908
     19 C         139.1933  144.3454  163.4780 C.1     1  UNL1        0.1004
     20 C         140.2579  137.0644  163.6789 C.3     1  UNL1        0.0721
     21 N         140.4486  137.5803  162.2834 N.3     1  UNL1       -0.2724
     22 C         139.2574  137.9640  161.4563 C.3     1  UNL1        0.0758
     23 C         139.4481  138.4798  160.0608 C.3     1  UNL1        0.0609
     24 C         140.8298  138.6121  159.4923 C.3     1  UNL1        0.1687
     25 C         142.0210  138.2284  160.3193 C.3     1  UNL1        0.0609
     26 C         141.8303  137.7125  161.7149 C.3     1  UNL1        0.0758
     27 O         141.0205  139.1279  158.0968 O.3     1  UNL1       -0.4790
     28 C         141.3268  138.1745  156.9800 C.ar    1  UNL1        0.1393
     29 C         140.2148  137.6260  156.1359 C.ar    1  UNL1        0.0378
     30 C         140.5211  136.6726  155.0191 C.ar    1  UNL1        0.0154
     31 C         141.9394  136.2676  154.7465 C.ar    1  UNL1        0.0684
     32 CL        142.2457  135.3142  153.6297 Cl      1  UNL1       -0.0814
     33 C         143.0515  136.8161  155.5906 C.ar    1  UNL1        0.0712
     34 CL        144.4698  136.4111  155.3180 Cl      1  UNL1       -0.0813
     35 C         142.7451  137.7695  156.7074 C.ar    1  UNL1        0.0491
@<TRIPOS>UNITY_ATOM_ATTR
9 1
charge -1
@<TRIPOS>BOND
     1    18    19    3
     2    19    12    1
     3    12    13   ar
     4    13    14   ar
     5    14    15   ar
     6    15    16   ar
     7    16    11    1
     8     7    11    1
     9     7     8    1
    10     8     9   ar
    11     8    10   ar
    12     7     1    1
    13     1     2    1
    14     2     3    1
    15     3     4    1
    16     4    20    1
    17    20    21    1
    18    21    22    1
    19    22    23    1
    20    23    24    1
    21    24    27    1
    22    27    28    1
    23    28    29   ar
    24    29    30   ar
    25    30    31   ar
    26    31    32    1
    27    31    33   ar
    28    33    34    1
    29    33    35   ar
    30    24    25    1
    31    25    26    1
    32     4     5    1
    33     5     6    1
    34    16    17   ar
    35    17    12   ar
    36     6     1    1
    37    26    21    1
    38    35    28   ar
@<TRIPOS>MOLECULE
*****
 35 38 0 0 0
SMALL
GASTEIGER

@<TRIPOS>ATOM
      1 N         140.4895  140.6001  167.5059 N.3     1  UNL1       -0.2691
      2 C         140.4244  142.0638  167.1848 C.3     1  UNL1        0.0724
      3 C         141.5700  142.7291  166.4814 C.3     1  UNL1        0.0188
      4 C         142.7809  141.9307  166.0991 C.3     1  UNL1        0.0188
      5 C         142.8461  140.4669  166.4201 C.3     1  UNL1        0.0188
      6 C         141.7005  139.8016  167.1235 C.3     1  UNL1        0.0724
      7 C         139.3439  139.9348  168.2093 C.3     1  UNL1        0.0987
      8 C         139.2106  140.0484  169.6991 C.2     1  UNL1        0.0652
      9 O         137.8716  139.8611  170.3487 O.co2   1  UNL1       -0.5478
     10 O         140.4162  140.3495  170.5391 O.co2   1  UNL1       -0.5478
     11 C         138.3315  139.1558  167.4230 C.3     1  UNL1        0.0480
     12 C         138.2459  140.1777  163.5891 C.ar    1  UNL1        0.0681
     13 C         138.6779  138.8943  162.9440 C.ar    1  UNL1        0.0103
     14 C         138.9944  137.6980  163.7918 C.ar    1  UNL1        0.0004
     15 C         138.8790  137.7852  165.2848 C.ar    1  UNL1       -0.0042
     16 C         138.4470  139.0686  165.9299 C.ar    1  UNL1       -0.0198
     17 C         138.1305  140.2648  165.0821 C.ar    1  UNL1        0.0061
     18 N         137.6129  142.5701  161.8934 N.1     1  UNL1       -0.1908
     19 C         137.9294  141.3739  162.7412 C.1     1  UNL1        0.1004
     20 C         143.9266  142.5960  165.3957 C.3     1  UNL1        0.0721
     21 N         143.8966  142.7628  163.9053 N.3     1  UNL1       -0.2724
     22 C         144.8876  142.0318  163.0487 C.3     1  UNL1        0.0758
     23 C         144.8576  142.1987  161.5584 C.3     1  UNL1        0.0609
     24 C         143.8368  143.0965  160.9245 C.3     1  UNL1        0.1687
     25 C         142.8459  143.8275  161.7811 C.3     1  UNL1        0.0609
     26 C         142.8758  143.6607  163.2715 C.3     1  UNL1        0.0758
     27 O         143.8068  143.2634  159.4342 O.3     1  UNL1       -0.4790
     28 C         142.4939  143.3896  158.7198 C.ar    1  UNL1        0.1393
     29 C         141.6724  142.1665  158.4387 C.ar    1  UNL1        0.0378
     30 C         140.3594  142.2927  157.7244 C.ar    1  UNL1        0.0154
     31 C         139.8680  143.6421  157.2912 C.ar    1  UNL1        0.0684
     32 CL        138.5551  143.7683  156.5768 Cl      1  UNL1       -0.0814
     33 C         140.6895  144.8652  157.5723 C.ar    1  UNL1        0.0712
     34 CL        140.1980  146.2146  157.1391 Cl      1  UNL1       -0.0813
     35 C         142.0024  144.7390  158.2866 C.ar    1  UNL1        0.0491
@<TRIPOS>UNITY_ATOM_ATTR
9 1
charge -1
@<TRIPOS>BOND
     1    18    19    3
     2    19    12    1
     3    12    13   ar
     4    13    14   ar
     5    14    15   ar
     6    15    16   ar
     7    16    11    1
     8     7    11    1
     9     7     8    1
    10     8     9   ar
    11     8    10   ar
    12     7     1    1
    13     1     2    1
    14     2     3    1
    15     3     4    1
    16     4    20    1
    17    20    21    1
    18    21    22    1
    19    22    23    1
    20    23    24    1
    21    24    27    1
    22    27    28    1
    23    28    29   ar
    24    29    30   ar
    25    30    31   ar
    26    31    32    1
    27    31    33   ar
    28    33    34    1
    29    33    35   ar
    30    24    25    1
    31    25    26    1
    32     4     5    1
    33     5     6    1
    34    16    17   ar
    35    17    12   ar
    36     6     1    1
    37    26    21    1
    38    35    28   ar
@<TRIPOS>MOLECULE
*****
 35 38 0 0 0
SMALL
GASTEIGER

@<TRIPOS>ATOM
      1 N         139.9538  141.5696  167.2101 N.3     1  UNL1       -0.2691
      2 C         139.2365  140.6270  166.2898 C.3     1  UNL1        0.0724
      3 C         138.6469  141.1344  165.0072 C.3     1  UNL1        0.0188
      4 C         138.7747  142.5843  164.6449 C.3     1  UNL1        0.0188
      5 C         139.4920  143.5270  165.5652 C.3     1  UNL1        0.0188
      6 C         140.0815  143.0196  166.8478 C.3     1  UNL1        0.0724
      7 C         140.5433  141.0622  168.4927 C.3     1  UNL1        0.0987
      8 C         139.6971  140.9869  169.7290 C.2     1  UNL1        0.0652
      9 O         139.6280  142.1586  170.6630 O.co2   1  UNL1       -0.5478
     10 O         138.9202  139.7400  170.0312 O.co2   1  UNL1       -0.5478
     11 C         141.9790  140.6302  168.5390 C.3     1  UNL1        0.0480
     12 C         143.8072  141.0237  165.0386 C.ar    1  UNL1        0.0681
     13 C         144.1408  139.5941  164.7308 C.ar    1  UNL1        0.0103
     14 C         143.7539  138.5098  165.6924 C.ar    1  UNL1        0.0004
     15 C         143.0333  138.8552  166.9617 C.ar    1  UNL1       -0.0042
     16 C         142.6996  140.2848  167.2695 C.ar    1  UNL1       -0.0198
     17 C         143.0866  141.3690  166.3080 C.ar    1  UNL1        0.0061
     18 N         144.5811  143.1922  163.1154 N.1     1  UNL1       -0.1908
     19 C         144.1941  142.1080  164.0770 C.1     1  UNL1        0.1004
     20 C         138.1851  143.0917  163.3623 C.3     1  UNL1        0.0721
     21 N         139.0636  143.7566  162.3444 N.3     1  UNL1       -0.2724
     22 C         139.2723  145.2414  162.3892 C.3     1  UNL1        0.0758
     23 C         140.1508  145.9063  161.3713 C.3     1  UNL1        0.0609
     24 C         140.8205  145.0865  160.3086 C.3     1  UNL1        0.1687
     25 C         140.6118  143.6018  160.2638 C.3     1  UNL1        0.0609
     26 C         139.7333  142.9368  161.2817 C.3     1  UNL1        0.0758
     27 O         141.6990  145.7514  159.2907 O.3     1  UNL1       -0.4790
     28 C         141.3783  145.6313  157.8303 C.ar    1  UNL1        0.1393
     29 C         142.2983  144.8726  156.9203 C.ar    1  UNL1        0.0378
     30 C         141.9777  144.7524  155.4600 C.ar    1  UNL1        0.0154
     31 C         140.7370  145.3911  154.9094 C.ar    1  UNL1        0.0684
     32 CL        140.4164  145.2709  153.4491 Cl      1  UNL1       -0.0814
     33 C         139.8170  146.1498  155.8194 C.ar    1  UNL1        0.0712
     34 CL        138.5764  146.7884  155.2689 Cl      1  UNL1       -0.0813
     35 C         140.1377  146.2699  157.2798 C.ar    1  UNL1        0.0491
@<TRIPOS>UNITY_ATOM_ATTR
9 1
charge -1
@<TRIPOS>BOND
     1    18    19    3
     2    19    12    1
     3    12    13   ar
     4    13    14   ar
     5    14    15   ar
     6    15    16   ar
     7    16    11    1
     8     7    11    1
     9     7     8    1
    10     8     9   ar
    11     8    10   ar
    12     7     1    1
    13     1     2    1
    14     2     3    1
    15     3     4    1
    16     4    20    1
    17    20    21    1
    18    21    22    1
    19    22    23    1
    20    23    24    1
    21    24    27    1
    22    27    28    1
    23    28    29   ar
    24    29    30   ar
    25    30    31   ar
    26    31    32    1
    27    31    33   ar
    28    33    34    1
    29    33    35   ar
    30    24    25    1
    31    25    26    1
    32     4     5    1
    33     5     6    1
    34    16    17   ar
    35    17    12   ar
    36     6     1    1
    37    26    21    1
    38    35    28   ar
@<TRIPOS>MOLECULE
*****
 35 38 0 0 0
SMALL
GASTEIGER

@<TRIPOS>ATOM
      1 N         141.0986  139.5213  166.8626 N.3     1  UNL1       -0.2691
      2 C         139.6207  139.5095  166.6060 C.3     1  UNL1        0.0724
      3 C         139.0774  138.8336  165.3821 C.3     1  UNL1        0.0188
      4 C         140.0118  138.1696  164.4148 C.3     1  UNL1        0.0188
      5 C         141.4897  138.1814  164.6713 C.3     1  UNL1        0.0188
      6 C         142.0331  138.8573  165.8952 C.3     1  UNL1        0.0724
      7 C         141.6419  140.1972  168.0865 C.3     1  UNL1        0.0987
      8 C         141.7364  139.4435  169.3800 C.2     1  UNL1        0.0652
      9 O         140.5925  139.4718  170.3498 O.co2   1  UNL1       -0.5478
     10 O         142.9749  138.6615  169.7035 O.co2   1  UNL1       -0.5478
     11 C         142.0908  141.6268  168.0170 C.3     1  UNL1        0.0480
     12 C         141.0119  143.5747  164.7318 C.ar    1  UNL1        0.0681
     13 C         142.3350  143.7175  164.0396 C.ar    1  UNL1        0.0103
     14 C         143.5766  143.1635  164.6732 C.ar    1  UNL1        0.0004
     15 C         143.4952  142.4666  165.9989 C.ar    1  UNL1       -0.0042
     16 C         142.1722  142.3237  166.6911 C.ar    1  UNL1       -0.0198
     17 C         140.9306  142.8777  166.0576 C.ar    1  UNL1        0.0061
     18 N         138.5287  144.6827  163.4647 N.1     1  UNL1       -0.1908
     19 C         139.7703  144.1287  164.0983 C.1     1  UNL1        0.1004
     20 C         139.4684  137.4937  163.1909 C.3     1  UNL1        0.0721
     21 N         139.1285  138.3039  161.9752 N.3     1  UNL1       -0.2724
     22 C         137.8257  139.0444  161.9076 C.3     1  UNL1        0.0758
     23 C         137.4858  139.8546  160.6919 C.3     1  UNL1        0.0609
     24 C         138.4485  139.9244  159.5437 C.3     1  UNL1        0.1687
     25 C         139.7513  139.1840  159.6113 C.3     1  UNL1        0.0609
     26 C         140.0913  138.3737  160.8271 C.3     1  UNL1        0.0758
     27 O         138.1086  140.7346  158.3281 O.3     1  UNL1       -0.4790
     28 C         138.7405  142.0794  158.1222 C.ar    1  UNL1        0.1393
     29 C         138.7965  142.6793  156.7486 C.ar    1  UNL1        0.0378
     30 C         139.4283  144.0241  156.5427 C.ar    1  UNL1        0.0154
     31 C         140.0041  144.7690  157.7105 C.ar    1  UNL1        0.0684
     32 CL        140.6359  146.1137  157.5046 Cl      1  UNL1       -0.0814
     33 C         139.9480  144.1691  159.0842 C.ar    1  UNL1        0.0712
     34 CL        140.5237  144.9139  160.2519 Cl      1  UNL1       -0.0813
     35 C         139.3162  142.8242  159.2900 C.ar    1  UNL1        0.0491
@<TRIPOS>UNITY_ATOM_ATTR
9 1
charge -1
@<TRIPOS>BOND
     1    18    19    3
     2    19    12    1
     3    12    13   ar
     4    13    14   ar
     5    14    15   ar
     6    15    16   ar
     7    16    11    1
     8     7    11    1
     9     7     8    1
    10     8     9   ar
    11     8    10   ar
    12     7     1    1
    13     1     2    1
    14     2     3    1
    15     3     4    1
    16     4    20    1
    17    20    21    1
    18    21    22    1
    19    22    23    1
    20    23    24    1
    21    24    27    1
    22    27    28    1
    23    28    29   ar
    24    29    30   ar
    25    30    31   ar
    26    31    32    1
    27    31    33   ar
    28    33    34    1
    29    33    35   ar
    30    24    25    1
    31    25    26    1
    32     4     5    1
    33     5     6    1
    34    16    17   ar
    35    17    12   ar
    36     6     1    1
    37    26    21    1
    38    35    28   ar
@<TRIPOS>MOLECULE
*****
 35 38 0 0 0
SMALL
GASTEIGER

@<TRIPOS>ATOM
      1 N         138.6333  140.2298  165.6824 N.3     1  UNL1       -0.2691
      2 C         137.8084  140.8015  164.5677 C.3     1  UNL1        0.0724
      3 C         138.0384  142.2118  164.1115 C.3     1  UNL1        0.0188
      4 C         139.0933  143.0505  164.7701 C.3     1  UNL1        0.0188
      5 C         139.9182  142.4789  165.8849 C.3     1  UNL1        0.0188
      6 C         139.6883  141.0685  166.3411 C.3     1  UNL1        0.0724
      7 C         138.4033  138.8195  166.1386 C.3     1  UNL1        0.0987
      8 C         137.6752  138.5561  167.4233 C.2     1  UNL1        0.0652
      9 O         136.5059  137.6167  167.4436 O.co2   1  UNL1       -0.5478
     10 O         138.1162  139.2320  168.6876 O.co2   1  UNL1       -0.5478
     11 C         138.9015  137.6726  165.3100 C.3     1  UNL1        0.0480
     12 C         142.3729  138.5566  163.6018 C.ar    1  UNL1        0.0681
     13 C         142.0316  138.3700  162.1532 C.ar    1  UNL1        0.0103
     14 C         140.6469  137.9510  161.7568 C.ar    1  UNL1        0.0004
     15 C         139.6036  137.7186  162.8090 C.ar    1  UNL1       -0.0042
     16 C         139.9449  137.9051  164.2577 C.ar    1  UNL1       -0.0198
     17 C         141.3295  138.3241  164.6541 C.ar    1  UNL1        0.0061
     18 N         145.1422  139.3946  164.3946 N.1     1  UNL1       -0.1908
     19 C         143.7576  138.9756  163.9982 C.1     1  UNL1        0.1004
     20 C         139.3232  144.4609  164.3140 C.3     1  UNL1        0.0721
     21 N         139.9429  144.7240  162.9736 N.3     1  UNL1       -0.2724
     22 C         139.4516  145.8634  162.1308 C.3     1  UNL1        0.0758
     23 C         140.0713  146.1265  160.7904 C.3     1  UNL1        0.0609
     24 C         141.1824  145.2502  160.2927 C.3     1  UNL1        0.1687
     25 C         141.6737  144.1108  161.1355 C.3     1  UNL1        0.0609
     26 C         141.0540  143.8477  162.4760 C.3     1  UNL1        0.0758
     27 O         141.8021  145.5133  158.9524 O.3     1  UNL1       -0.4790
     28 C         141.0511  145.1734  157.6991 C.ar    1  UNL1        0.1393
     29 C         139.9759  144.1279  157.7293 C.ar    1  UNL1        0.0378
     30 C         139.2250  143.7880  156.4761 C.ar    1  UNL1        0.0154
     31 C         139.5493  144.4935  155.1927 C.ar    1  UNL1        0.0684
     32 CL        138.7983  144.1535  153.9395 Cl      1  UNL1       -0.0814
     33 C         140.6245  145.5389  155.1625 C.ar    1  UNL1        0.0712
     34 CL        140.9488  146.2444  153.8791 Cl      1  UNL1       -0.0813
     35 C         141.3754  145.8789  156.4157 C.ar    1  UNL1        0.0491
@<TRIPOS>UNITY_ATOM_ATTR
9 1
charge -1
@<TRIPOS>BOND
     1    18    19    3
     2    19    12    1
     3    12    13   ar
     4    13    14   ar
     5    14    15   ar
     6    15    16   ar
     7    16    11    1
     8     7    11    1
     9     7     8    1
    10     8     9   ar
    11     8    10   ar
    12     7     1    1
    13     1     2    1
    14     2     3    1
    15     3     4    1
    16     4    20    1
    17    20    21    1
    18    21    22    1
    19    22    23    1
    20    23    24    1
    21    24    27    1
    22    27    28    1
    23    28    29   ar
    24    29    30   ar
    25    30    31   ar
    26    31    32    1
    27    31    33   ar
    28    33    34    1
    29    33    35   ar
    30    24    25    1
    31    25    26    1
    32     4     5    1
    33     5     6    1
    34    16    17   ar
    35    17    12   ar
    36     6     1    1
    37    26    21    1
    38    35    28   ar
@<TRIPOS>MOLECULE
*****
 35 38 0 0 0
SMALL
GASTEIGER

@<TRIPOS>ATOM
      1 N         141.4220  139.4997  166.9065 N.3     1  UNL1       -0.2691
      2 C         140.0503  139.3852  166.3105 C.3     1  UNL1        0.0724
      3 C         139.8447  138.6050  165.0460 C.3     1  UNL1        0.0188
      4 C         141.0108  137.9393  164.3774 C.3     1  UNL1        0.0188
      5 C         142.3826  138.0538  164.9734 C.3     1  UNL1        0.0188
      6 C         142.5882  138.8340  166.2380 C.3     1  UNL1        0.0724
      7 C         141.6276  140.2798  168.1711 C.3     1  UNL1        0.0987
      8 C         141.6470  139.5727  169.4938 C.2     1  UNL1        0.0652
      9 O         140.4069  139.5236  170.3363 O.co2   1  UNL1       -0.5478
     10 O         142.9065  138.9147  169.9741 O.co2   1  UNL1       -0.5478
     11 C         141.8137  141.7671  168.1129 C.3     1  UNL1        0.0480
     12 C         141.1293  143.6768  164.7019 C.ar    1  UNL1        0.0681
     13 C         142.5223  143.7930  164.1577 C.ar    1  UNL1        0.0103
     14 C         143.6790  143.2339  164.9319 C.ar    1  UNL1        0.0004
     15 C         143.4429  142.5586  166.2503 C.ar    1  UNL1       -0.0042
     16 C         142.0499  142.4424  166.7945 C.ar    1  UNL1       -0.0198
     17 C         140.8932  143.0015  166.0203 C.ar    1  UNL1        0.0061
     18 N         138.8158  144.7949  163.1535 N.1     1  UNL1       -0.1908
     19 C         139.9726  144.2358  163.9277 C.1     1  UNL1        0.1004
     20 C         140.8053  137.1592  163.1129 C.3     1  UNL1        0.0721
     21 N         141.1274  137.7817  161.7868 N.3     1  UNL1       -0.2724
     22 C         142.5226  137.7049  161.2413 C.3     1  UNL1        0.0758
     23 C         142.8448  138.3274  159.9152 C.3     1  UNL1        0.0609
     24 C         141.7718  139.0268  159.1345 C.3     1  UNL1        0.1687
     25 C         140.3766  139.1037  159.6799 C.3     1  UNL1        0.0609
     26 C         140.0544  138.4811  161.0061 C.3     1  UNL1        0.0758
     27 O         142.0939  139.6494  157.8084 O.3     1  UNL1       -0.4790
     28 C         143.3297  140.4854  157.6527 C.ar    1  UNL1        0.1393
     29 C         143.6100  141.5970  158.6200 C.ar    1  UNL1        0.0378
     30 C         144.8456  142.4329  158.4643 C.ar    1  UNL1        0.0154
     31 C         145.8011  142.1573  157.3413 C.ar    1  UNL1        0.0684
     32 CL        147.0368  142.9932  157.1856 Cl      1  UNL1       -0.0814
     33 C         145.5208  141.0456  156.3740 C.ar    1  UNL1        0.0712
     34 CL        146.4762  140.7700  155.2510 Cl      1  UNL1       -0.0813
     35 C         144.2851  140.2097  156.5297 C.ar    1  UNL1        0.0491
@<TRIPOS>UNITY_ATOM_ATTR
9 1
charge -1
@<TRIPOS>BOND
     1    18    19    3
     2    19    12    1
     3    12    13   ar
     4    13    14   ar
     5    14    15   ar
     6    15    16   ar
     7    16    11    1
     8     7    11    1
     9     7     8    1
    10     8     9   ar
    11     8    10   ar
    12     7     1    1
    13     1     2    1
    14     2     3    1
    15     3     4    1
    16     4    20    1
    17    20    21    1
    18    21    22    1
    19    22    23    1
    20    23    24    1
    21    24    27    1
    22    27    28    1
    23    28    29   ar
    24    29    30   ar
    25    30    31   ar
    26    31    32    1
    27    31    33   ar
    28    33    34    1
    29    33    35   ar
    30    24    25    1
    31    25    26    1
    32     4     5    1
    33     5     6    1
    34    16    17   ar
    35    17    12   ar
    36     6     1    1
    37    26    21    1
    38    35    28   ar
@<TRIPOS>MOLECULE
*****
 35 38 0 0 0
SMALL
GASTEIGER

@<TRIPOS>ATOM
      1 N         140.5962  143.4159  162.8933 N.3     1  UNL1       -0.2691
      2 C         140.2042  142.1529  162.1853 C.3     1  UNL1        0.0724
      3 C         140.6563  141.9122  160.7755 C.3     1  UNL1        0.0188
      4 C         141.5005  142.9343  160.0737 C.3     1  UNL1        0.0188
      5 C         141.8925  144.1973  160.7817 C.3     1  UNL1        0.0188
      6 C         141.4403  144.4381  162.1915 C.3     1  UNL1        0.0724
      7 C         140.1440  143.6566  164.3031 C.3     1  UNL1        0.0987
      8 C         138.8098  144.2903  164.5650 C.2     1  UNL1        0.0652
      9 O         138.6094  145.1395  165.7851 O.co2   1  UNL1       -0.5478
     10 O         137.6762  144.0747  163.6068 O.co2   1  UNL1       -0.5478
     11 C         141.0260  143.2638  165.4510 C.3     1  UNL1        0.0480
     12 C         140.1890  141.5968  168.9540 C.ar    1  UNL1        0.0681
     13 C         139.5539  140.3119  168.5120 C.ar    1  UNL1        0.0103
     14 C         139.4095  140.0109  167.0496 C.ar    1  UNL1        0.0004
     15 C         139.9002  140.9948  166.0293 C.ar    1  UNL1       -0.0042
     16 C         140.5353  142.2798  166.4714 C.ar    1  UNL1       -0.0198
     17 C         140.6797  142.5808  167.9337 C.ar    1  UNL1        0.0061
     18 N         140.4779  142.1989  171.8788 N.1     1  UNL1       -0.1908
     19 C         140.3334  141.8979  170.4164 C.1     1  UNL1        0.1004
     20 C         141.9526  142.6935  158.6638 C.3     1  UNL1        0.0721
     21 N         141.4645  143.5813  157.5577 N.3     1  UNL1       -0.2724
     22 C         142.4384  144.1559  156.5720 C.3     1  UNL1        0.0758
     23 C         141.9503  145.0436  155.4659 C.3     1  UNL1        0.0609
     24 C         140.4883  145.3569  155.3454 C.3     1  UNL1        0.1687
     25 C         139.5145  144.7824  156.3310 C.3     1  UNL1        0.0609
     26 C         140.0026  143.8946  157.4372 C.3     1  UNL1        0.0758
     27 O         140.0003  146.2447  154.2392 O.3     1  UNL1       -0.4790
     28 C         139.6521  147.6756  154.5243 C.ar    1  UNL1        0.1393
     29 C         139.9435  148.7359  153.5040 C.ar    1  UNL1        0.0378
     30 C         139.5953  150.1668  153.7890 C.ar    1  UNL1        0.0154
     31 C         138.9558  150.5375  155.0943 C.ar    1  UNL1        0.0684
     32 CL        138.6076  151.9684  155.3793 Cl      1  UNL1       -0.0814
     33 C         138.6644  149.4772  156.1145 C.ar    1  UNL1        0.0712
     34 CL        138.0249  149.8478  157.4197 Cl      1  UNL1       -0.0813
     35 C         139.0126  148.0463  155.8295 C.ar    1  UNL1        0.0491
@<TRIPOS>UNITY_ATOM_ATTR
9 1
charge -1
@<TRIPOS>BOND
     1    18    19    3
     2    19    12    1
     3    12    13   ar
     4    13    14   ar
     5    14    15   ar
     6    15    16   ar
     7    16    11    1
     8     7    11    1
     9     7     8    1
    10     8     9   ar
    11     8    10   ar
    12     7     1    1
    13     1     2    1
    14     2     3    1
    15     3     4    1
    16     4    20    1
    17    20    21    1
    18    21    22    1
    19    22    23    1
    20    23    24    1
    21    24    27    1
    22    27    28    1
    23    28    29   ar
    24    29    30   ar
    25    30    31   ar
    26    31    32    1
    27    31    33   ar
    28    33    34    1
    29    33    35   ar
    30    24    25    1
    31    25    26    1
    32     4     5    1
    33     5     6    1
    34    16    17   ar
    35    17    12   ar
    36     6     1    1
    37    26    21    1
    38    35    28   ar
