@<TRIPOS>MOLECULE
*****
 41 45 0 0 0
SMALL
GASTEIGER

@<TRIPOS>ATOM
      1 C         140.3826  144.6891  162.1904 C.2     1  UNL1        0.2251
      2 O         140.4553  146.1770  162.0155 O.2     1  UNL1       -0.2749
      3 N         140.1141  143.8071  161.0072 N.am    1  UNL1       -0.2795
      4 C         140.0415  142.3190  161.1821 C.3     1  UNL1        0.0942
      5 C         139.7730  141.4370  159.9989 C.3     1  UNL1        0.0343
      6 C         139.5772  142.0431  158.6407 C.3     1  UNL1        0.0911
      7 C         139.6499  143.5310  158.4659 C.3     1  UNL1        0.0343
      8 C         139.9184  144.4130  159.6491 C.3     1  UNL1        0.0942
      9 C         140.9698  142.8710  166.2647 C.3     1  UNL1        0.0542
     10 C         142.0936  142.8639  165.2711 C.3     1  UNL1        0.0162
     11 C         141.8979  143.4699  163.9131 C.3     1  UNL1        0.0104
     12 C         140.5784  144.0830  163.5485 C.3     1  UNL1        0.0768
     13 C         139.4546  144.0902  164.5421 C.3     1  UNL1        0.0095
     14 C         138.0994  144.3377  165.1354 C.3     1  UNL1        0.0005
     15 C         138.7882  144.7821  163.3900 C.3     1  UNL1        0.0005
     16 C         139.6503  143.4842  165.9001 C.3     1  UNL1        0.0162
     17 N         141.1656  142.2650  167.6228 N.3     1  UNL1       -0.2961
     18 H         142.0184  142.6721  168.0067 H       1  UNL1        0.1235
     19 C         141.2918  140.7775  167.7692 C.3     1  UNL1        0.0798
     20 C         142.2473  140.2010  168.7716 C.3     1  UNL1        0.0221
     21 C         141.0854  139.1636  165.7437 C.ar    1  UNL1        0.1359
     22 C         140.2561  138.2527  164.8879 C.ar    1  UNL1        0.0366
     23 C         138.8041  138.0447  165.2016 C.ar    1  UNL1        0.0031
     24 C         138.1813  138.7477  166.3712 C.ar    1  UNL1       -0.0001
     25 C         139.0106  139.6586  167.2270 C.ar    1  UNL1        0.0000
     26 C         140.4626  139.8666  166.9133 C.ar    1  UNL1        0.0259
     27 C         143.5475  138.3393  165.8350 C.3     1  UNL1        0.2525
     28 O         142.5374  139.3716  165.4300 O.3     1  UNL1       -0.4717
     29 C         139.4173  140.5903  158.3032 C.2     1  UNL1        0.2286
     30 O         138.0513  140.0255  158.0484 O.2     1  UNL1       -0.2746
     31 N         140.6234  139.7023  158.2206 N.am    1  UNL1       -0.2793
     32 C         140.6195  138.2380  157.8954 C.3     1  UNL1        0.0935
     33 C         142.0389  137.7534  157.9224 C.3     1  UNL1        0.0233
     34 C         142.9199  138.9182  158.2644 C.3     1  UNL1        0.0233
     35 C         142.0451  140.1227  158.4487 C.3     1  UNL1        0.0935
     36 C         139.3259  142.1444  157.1654 C.ar    1  UNL1       -0.0145
     37 C         137.9399  142.4100  156.6572 C.ar    1  UNL1       -0.0038
     38 C         137.6886  142.5113  155.1818 C.ar    1  UNL1       -0.0003
     39 C         138.8234  142.3471  154.2148 C.ar    1  UNL1       -0.0000
     40 C         140.2094  142.0816  154.7230 C.ar    1  UNL1       -0.0003
     41 C         140.4608  141.9803  156.1983 C.ar    1  UNL1       -0.0038
@<TRIPOS>BOND
     1    27    28    1
     2    28    21    1
     3    21    22   ar
     4    22    23   ar
     5    23    24   ar
     6    24    25   ar
     7    25    26   ar
     8    26    19    1
     9    19    20    1
    10    19    17    1
    11     9    17    1
    12     9    10    1
    13    10    11    1
    14    11    12    1
    15    12     1    1
    16     1     2    2
    17     1     3   am
    18     3     4    1
    19     4     5    1
    20     5     6    1
    21     6    29    1
    22    29    30    2
    23    29    31   am
    24    31    32    1
    25    32    33    1
    26    33    34    1
    27    34    35    1
    28     6    36    1
    29    36    37   ar
    30    37    38   ar
    31    38    39   ar
    32    39    40   ar
    33    40    41   ar
    34     6     7    1
    35     7     8    1
    36    12    13    1
    37    13    14    1
    38    13    15    1
    39    13    16    1
    40    26    21   ar
    41    16     9    1
    42     8     3    1
    43    35    31    1
    44    41    36   ar
    45    17    18    1
@<TRIPOS>MOLECULE
*****
 41 45 0 0 0
SMALL
GASTEIGER

@<TRIPOS>ATOM
      1 C         139.0619  144.1007  162.2957 C.2     1  UNL1        0.2251
      2 O         137.7612  144.8464  162.3426 O.2     1  UNL1       -0.2749
      3 N         139.6277  143.5002  163.5484 N.am    1  UNL1       -0.2795
      4 C         140.9284  142.7545  163.5015 C.3     1  UNL1        0.0942
      5 C         141.4942  142.1540  164.7542 C.3     1  UNL1        0.0343
      6 C         140.7592  142.2991  166.0538 C.3     1  UNL1        0.0911
      7 C         139.4585  143.0447  166.1006 C.3     1  UNL1        0.0343
      8 C         138.8928  143.6453  164.8480 C.3     1  UNL1        0.0942
      9 C         141.2666  143.6654  158.3971 C.3     1  UNL1        0.0542
     10 C         141.6863  144.7152  159.3829 C.3     1  UNL1        0.0162
     11 C         140.9514  144.8603  160.6824 C.3     1  UNL1        0.0104
     12 C         139.7968  143.9556  160.9961 C.3     1  UNL1        0.0768
     13 C         139.3772  142.9058  160.0104 C.3     1  UNL1        0.0095
     14 C         138.6096  141.7694  159.4027 C.3     1  UNL1        0.0005
     15 C         138.3757  142.6563  161.0988 C.3     1  UNL1        0.0005
     16 C         140.1121  142.7607  158.7108 C.3     1  UNL1        0.0162
     17 N         142.0016  143.5203  157.0975 N.3     1  UNL1       -0.2961
     18 H         141.3008  143.3217  156.3835 H       1  UNL1        0.1235
     19 C         143.0729  142.4803  156.9538 C.3     1  UNL1        0.0798
     20 C         144.1837  142.6793  155.9656 C.3     1  UNL1        0.0221
     21 C         143.7594  141.2044  159.1104 C.ar    1  UNL1        0.1359
     22 C         143.7200  139.9654  159.9549 C.ar    1  UNL1        0.0366
     23 C         142.9545  138.7631  159.4873 C.ar    1  UNL1        0.0031
     24 C         142.2286  138.7999  158.1752 C.ar    1  UNL1       -0.0001
     25 C         142.2681  140.0389  157.3307 C.ar    1  UNL1        0.0000
     26 C         143.0335  141.2412  157.7983 C.ar    1  UNL1        0.0259
     27 C         144.5158  142.7835  161.0299 C.3     1  UNL1        0.2525
     28 O         144.5248  142.4067  159.5780 O.3     1  UNL1       -0.4717
     29 C         141.9481  141.5084  166.5138 C.2     1  UNL1        0.2286
     30 O         142.9708  142.1438  167.4084 O.2     1  UNL1       -0.2746
     31 N         142.1143  140.0825  166.0790 N.am    1  UNL1       -0.2793
     32 C         143.2449  139.1718  166.4562 C.3     1  UNL1        0.0935
     33 C         143.0084  137.8433  165.8011 C.3     1  UNL1        0.0233
     34 C         141.7316  137.9329  165.0190 C.3     1  UNL1        0.0233
     35 C         141.1790  139.3168  165.1907 C.3     1  UNL1        0.0935
     36 C         140.4373  142.1695  167.5131 C.ar    1  UNL1       -0.0145
     37 C         140.5948  143.3510  168.4237 C.ar    1  UNL1       -0.0038
     38 C         140.2728  143.2214  169.8830 C.ar    1  UNL1       -0.0003
     39 C         139.7933  141.9103  170.4316 C.ar    1  UNL1       -0.0000
     40 C         139.6358  140.7288  169.5210 C.ar    1  UNL1       -0.0003
     41 C         139.9577  140.8583  168.0618 C.ar    1  UNL1       -0.0038
@<TRIPOS>BOND
     1    27    28    1
     2    28    21    1
     3    21    22   ar
     4    22    23   ar
     5    23    24   ar
     6    24    25   ar
     7    25    26   ar
     8    26    19    1
     9    19    20    1
    10    19    17    1
    11     9    17    1
    12     9    10    1
    13    10    11    1
    14    11    12    1
    15    12     1    1
    16     1     2    2
    17     1     3   am
    18     3     4    1
    19     4     5    1
    20     5     6    1
    21     6    29    1
    22    29    30    2
    23    29    31   am
    24    31    32    1
    25    32    33    1
    26    33    34    1
    27    34    35    1
    28     6    36    1
    29    36    37   ar
    30    37    38   ar
    31    38    39   ar
    32    39    40   ar
    33    40    41   ar
    34     6     7    1
    35     7     8    1
    36    12    13    1
    37    13    14    1
    38    13    15    1
    39    13    16    1
    40    26    21   ar
    41    16     9    1
    42     8     3    1
    43    35    31    1
    44    41    36   ar
    45    17    18    1
@<TRIPOS>MOLECULE
*****
 41 45 0 0 0
SMALL
GASTEIGER

@<TRIPOS>ATOM
      1 C         138.9395  144.2463  162.3549 C.2     1  UNL1        0.2251
      2 O         137.5941  144.9041  162.4386 O.2     1  UNL1       -0.2749
      3 N         139.5426  143.6144  163.5743 N.am    1  UNL1       -0.2795
      4 C         140.8881  142.9566  163.4905 C.3     1  UNL1        0.0942
      5 C         141.4912  142.3247  164.7099 C.3     1  UNL1        0.0343
      6 C         140.7489  142.3507  166.0131 C.3     1  UNL1        0.0911
      7 C         139.4034  143.0085  166.0969 C.3     1  UNL1        0.0343
      8 C         138.8003  143.6404  164.8774 C.3     1  UNL1        0.0942
      9 C         141.1665  144.1683  158.4454 C.3     1  UNL1        0.0542
     10 C         141.4510  145.2459  159.4492 C.3     1  UNL1        0.0162
     11 C         140.7087  145.2719  160.7524 C.3     1  UNL1        0.0104
     12 C         139.6819  144.2203  161.0517 C.3     1  UNL1        0.0768
     13 C         139.3973  143.1427  160.0478 C.3     1  UNL1        0.0095
     14 C         138.7805  141.9275  159.4210 C.3     1  UNL1        0.0005
     15 C         138.4408  142.7467  161.1332 C.3     1  UNL1        0.0005
     16 C         140.1396  143.1167  158.7446 C.3     1  UNL1        0.0162
     17 N         141.9089  144.1423  157.1421 N.3     1  UNL1       -0.2961
     18 H         142.5476  144.9375  157.1512 H       1  UNL1        0.1235
     19 C         141.1541  144.2080  155.8476 C.3     1  UNL1        0.0798
     20 C         140.9136  142.9572  155.0553 C.3     1  UNL1        0.0221
     21 C         141.2172  146.1296  154.1001 C.ar    1  UNL1        0.1359
     22 C         140.7029  147.4460  153.5978 C.ar    1  UNL1        0.0366
     23 C         139.6110  148.1574  154.3406 C.ar    1  UNL1        0.0031
     24 C         139.0335  147.5523  155.5857 C.ar    1  UNL1       -0.0001
     25 C         139.5478  146.2359  156.0880 C.ar    1  UNL1        0.0000
     26 C         140.6397  145.5245  155.3452 C.ar    1  UNL1        0.0259
     27 C         143.1619  146.1685  152.3777 C.3     1  UNL1        0.2525
     28 O         142.3091  145.4182  153.3573 O.3     1  UNL1       -0.4717
     29 C         141.9857  141.6129  166.4326 C.2     1  UNL1        0.2286
     30 O         143.0211  142.3009  167.2719 O.2     1  UNL1       -0.2746
     31 N         142.1871  140.1870  166.0126 N.am    1  UNL1       -0.2793
     32 C         143.3668  139.3257  166.3538 C.3     1  UNL1        0.0935
     33 C         143.1530  137.9784  165.7298 C.3     1  UNL1        0.0233
     34 C         141.8411  138.0071  165.0031 C.3     1  UNL1        0.0233
     35 C         141.2441  139.3721  165.1779 C.3     1  UNL1        0.0935
     36 C         140.4362  142.1204  167.4619 C.ar    1  UNL1       -0.0145
     37 C         140.5933  143.2379  168.4500 C.ar    1  UNL1       -0.0038
     38 C         140.2805  143.0075  169.8989 C.ar    1  UNL1       -0.0003
     39 C         139.8107  141.6595  170.3596 C.ar    1  UNL1       -0.0000
     40 C         139.6536  140.5420  169.3715 C.ar    1  UNL1       -0.0003
     41 C         139.9663  140.7723  167.9227 C.ar    1  UNL1       -0.0038
@<TRIPOS>BOND
     1    27    28    1
     2    28    21    1
     3    21    22   ar
     4    22    23   ar
     5    23    24   ar
     6    24    25   ar
     7    25    26   ar
     8    26    19    1
     9    19    20    1
    10    19    17    1
    11     9    17    1
    12     9    10    1
    13    10    11    1
    14    11    12    1
    15    12     1    1
    16     1     2    2
    17     1     3   am
    18     3     4    1
    19     4     5    1
    20     5     6    1
    21     6    29    1
    22    29    30    2
    23    29    31   am
    24    31    32    1
    25    32    33    1
    26    33    34    1
    27    34    35    1
    28     6    36    1
    29    36    37   ar
    30    37    38   ar
    31    38    39   ar
    32    39    40   ar
    33    40    41   ar
    34     6     7    1
    35     7     8    1
    36    12    13    1
    37    13    14    1
    38    13    15    1
    39    13    16    1
    40    26    21   ar
    41    16     9    1
    42     8     3    1
    43    35    31    1
    44    41    36   ar
    45    17    18    1
@<TRIPOS>MOLECULE
*****
 41 45 0 0 0
SMALL
GASTEIGER

@<TRIPOS>ATOM
      1 C         140.3955  145.3538  161.8868 C.2     1  UNL1        0.2251
      2 O         139.8933  146.7594  162.0357 O.2     1  UNL1       -0.2749
      3 N         140.6033  144.7724  160.5198 N.am    1  UNL1       -0.2795
      4 C         141.1055  143.3668  160.3710 C.3     1  UNL1        0.0942
      5 C         141.3132  142.7854  159.0040 C.3     1  UNL1        0.0343
      6 C         141.0187  143.6096  157.7857 C.3     1  UNL1        0.0911
      7 C         140.5165  145.0151  157.9346 C.3     1  UNL1        0.0343
      8 C         140.3088  145.5965  159.3016 C.3     1  UNL1        0.0942
      9 C         141.2789  142.8813  165.5414 C.3     1  UNL1        0.0542
     10 C         142.4047  143.4730  164.7461 C.3     1  UNL1        0.0162
     11 C         142.1103  144.2972  163.5279 C.3     1  UNL1        0.0104
     12 C         140.6900  144.5296  163.1051 C.3     1  UNL1        0.0768
     13 C         139.5643  143.9380  163.9004 C.3     1  UNL1        0.0095
     14 C         138.1677  143.5907  164.3236 C.3     1  UNL1        0.0005
     15 C         138.7848  144.6415  162.8292 C.3     1  UNL1        0.0005
     16 C         139.8587  143.1138  165.1186 C.3     1  UNL1        0.0162
     17 N         141.5734  142.0571  166.7597 N.3     1  UNL1       -0.2961
     18 H         142.4687  142.3816  167.1253 H       1  UNL1        0.1235
     19 C         141.6657  140.5640  166.6507 C.3     1  UNL1        0.0798
     20 C         143.0074  139.8932  166.6539 C.3     1  UNL1        0.0221
     21 C         139.3526  139.8459  167.5908 C.ar    1  UNL1        0.1359
     22 C         138.1033  139.0234  167.4786 C.ar    1  UNL1        0.0366
     23 C         137.9176  138.0965  166.3139 C.ar    1  UNL1        0.0031
     24 C         138.9813  137.9921  165.2615 C.ar    1  UNL1       -0.0001
     25 C         140.2307  138.8146  165.3738 C.ar    1  UNL1        0.0000
     26 C         140.4163  139.7415  166.5384 C.ar    1  UNL1        0.0259
     27 C         140.0966  140.2522  170.0467 C.3     1  UNL1        0.2525
     28 O         139.5382  140.7728  168.7555 O.3     1  UNL1       -0.4717
     29 C         141.4735  142.3367  157.1354 C.2     1  UNL1        0.2286
     30 O         140.4708  141.4176  156.5032 O.2     1  UNL1       -0.2746
     31 N         142.9311  141.9830  157.1172 N.am    1  UNL1       -0.2793
     32 C         143.5319  140.7512  156.5075 C.3     1  UNL1        0.0935
     33 C         145.0160  140.8058  156.7190 C.3     1  UNL1        0.0233
     34 C         145.3323  142.0713  157.4595 C.3     1  UNL1        0.0233
     35 C         144.0439  142.7989  157.7056 C.3     1  UNL1        0.0935
     36 C         140.8822  143.9916  156.3416 C.ar    1  UNL1       -0.0145
     37 C         142.0820  144.4606  155.5732 C.ar    1  UNL1       -0.0038
     38 C         141.9454  144.8426  154.1291 C.ar    1  UNL1       -0.0003
     39 C         140.6090  144.7556  153.4534 C.ar    1  UNL1       -0.0000
     40 C         139.4092  144.2865  154.2219 C.ar    1  UNL1       -0.0003
     41 C         139.5458  143.9045  155.6660 C.ar    1  UNL1       -0.0038
@<TRIPOS>BOND
     1    27    28    1
     2    28    21    1
     3    21    22   ar
     4    22    23   ar
     5    23    24   ar
     6    24    25   ar
     7    25    26   ar
     8    26    19    1
     9    19    20    1
    10    19    17    1
    11     9    17    1
    12     9    10    1
    13    10    11    1
    14    11    12    1
    15    12     1    1
    16     1     2    2
    17     1     3   am
    18     3     4    1
    19     4     5    1
    20     5     6    1
    21     6    29    1
    22    29    30    2
    23    29    31   am
    24    31    32    1
    25    32    33    1
    26    33    34    1
    27    34    35    1
    28     6    36    1
    29    36    37   ar
    30    37    38   ar
    31    38    39   ar
    32    39    40   ar
    33    40    41   ar
    34     6     7    1
    35     7     8    1
    36    12    13    1
    37    13    14    1
    38    13    15    1
    39    13    16    1
    40    26    21   ar
    41    16     9    1
    42     8     3    1
    43    35    31    1
    44    41    36   ar
    45    17    18    1
@<TRIPOS>MOLECULE
*****
 41 45 0 0 0
SMALL
GASTEIGER

@<TRIPOS>ATOM
      1 C         140.3755  145.3487  161.9310 C.2     1  UNL1        0.2251
      2 O         139.8718  146.7565  162.0515 O.2     1  UNL1       -0.2749
      3 N         140.5684  144.7345  160.5762 N.am    1  UNL1       -0.2795
      4 C         141.0722  143.3267  160.4558 C.3     1  UNL1        0.0942
      5 C         141.2651  142.7125  159.1010 C.3     1  UNL1        0.0343
      6 C         140.9544  143.5061  157.8666 C.3     1  UNL1        0.0911
      7 C         140.4507  144.9139  157.9870 C.3     1  UNL1        0.0343
      8 C         140.2577  145.5281  159.3419 C.3     1  UNL1        0.0942
      9 C         141.3076  142.9680  165.6342 C.3     1  UNL1        0.0542
     10 C         142.4228  143.4865  164.7754 C.3     1  UNL1        0.0162
     11 C         142.1121  144.2801  163.5411 C.3     1  UNL1        0.0104
     12 C         140.6862  144.5551  163.1655 C.3     1  UNL1        0.0768
     13 C         139.5710  144.0366  164.0242 C.3     1  UNL1        0.0095
     14 C         138.1801  143.7604  164.5132 C.3     1  UNL1        0.0005
     15 C         138.7773  144.7342  162.9597 C.3     1  UNL1        0.0005
     16 C         139.8817  143.2430  165.2586 C.3     1  UNL1        0.0162
     17 N         141.6184  142.1744  166.8686 N.3     1  UNL1       -0.2961
     18 H         142.5045  141.6989  166.6976 H       1  UNL1        0.1235
     19 C         140.6542  141.1324  167.3528 C.3     1  UNL1        0.0798
     20 C         140.0075  141.2765  168.6985 C.3     1  UNL1        0.0221
     21 C         141.4406  139.2109  165.7908 C.ar    1  UNL1        0.1359
     22 C         141.1231  138.0248  164.9294 C.ar    1  UNL1        0.0366
     23 C         139.7015  137.5739  164.7683 C.ar    1  UNL1        0.0031
     24 C         138.5976  138.3092  165.4687 C.ar    1  UNL1       -0.0001
     25 C         138.9151  139.4953  166.3302 C.ar    1  UNL1        0.0000
     26 C         140.3367  139.9462  166.4912 C.ar    1  UNL1        0.0259
     27 C         143.7367  139.8310  164.7450 C.3     1  UNL1        0.2525
     28 O         142.8622  139.6618  165.9519 O.3     1  UNL1       -0.4717
     29 C         141.4045  142.2187  157.2421 C.2     1  UNL1        0.2286
     30 O         140.3945  141.2717  156.6649 O.2     1  UNL1       -0.2746
     31 N         142.8646  141.8782  157.1949 N.am    1  UNL1       -0.2793
     32 C         143.4612  140.6345  156.6058 C.3     1  UNL1        0.0935
     33 C         144.9498  140.7093  156.7753 C.3     1  UNL1        0.0233
     34 C         145.2731  141.9993  157.4691 C.3     1  UNL1        0.0233
     35 C         143.9843  142.7218  157.7284 C.3     1  UNL1        0.0935
     36 C         140.8000  143.8525  156.4153 C.ar    1  UNL1       -0.0145
     37 C         139.4628  143.7155  155.7497 C.ar    1  UNL1       -0.0038
     38 C         139.3085  144.0619  154.2984 C.ar    1  UNL1       -0.0003
     39 C         140.4914  144.5452  153.5128 C.ar    1  UNL1       -0.0000
     40 C         141.8285  144.6822  154.1785 C.ar    1  UNL1       -0.0003
     41 C         141.9829  144.3359  155.6297 C.ar    1  UNL1       -0.0038
@<TRIPOS>BOND
     1    27    28    1
     2    28    21    1
     3    21    22   ar
     4    22    23   ar
     5    23    24   ar
     6    24    25   ar
     7    25    26   ar
     8    26    19    1
     9    19    20    1
    10    19    17    1
    11     9    17    1
    12     9    10    1
    13    10    11    1
    14    11    12    1
    15    12     1    1
    16     1     2    2
    17     1     3   am
    18     3     4    1
    19     4     5    1
    20     5     6    1
    21     6    29    1
    22    29    30    2
    23    29    31   am
    24    31    32    1
    25    32    33    1
    26    33    34    1
    27    34    35    1
    28     6    36    1
    29    36    37   ar
    30    37    38   ar
    31    38    39   ar
    32    39    40   ar
    33    40    41   ar
    34     6     7    1
    35     7     8    1
    36    12    13    1
    37    13    14    1
    38    13    15    1
    39    13    16    1
    40    26    21   ar
    41    16     9    1
    42     8     3    1
    43    35    31    1
    44    41    36   ar
    45    17    18    1
@<TRIPOS>MOLECULE
*****
 41 45 0 0 0
SMALL
GASTEIGER

@<TRIPOS>ATOM
      1 C         138.8334  144.2093  162.4203 C.2     1  UNL1        0.2251
      2 O         137.4915  144.8700  162.5341 O.2     1  UNL1       -0.2749
      3 N         139.4688  143.5888  163.6290 N.am    1  UNL1       -0.2795
      4 C         140.8107  142.9281  163.5151 C.3     1  UNL1        0.0942
      5 C         141.4462  142.3076  164.7239 C.3     1  UNL1        0.0343
      6 C         140.7398  142.3478  166.0466 C.3     1  UNL1        0.0911
      7 C         139.3980  143.0085  166.1605 C.3     1  UNL1        0.0343
      8 C         138.7625  143.6290  164.9517 C.3     1  UNL1        0.0942
      9 C         140.9525  144.0888  158.4523 C.3     1  UNL1        0.0542
     10 C         141.2554  145.1840  159.4314 C.3     1  UNL1        0.0162
     11 C         140.5491  145.2242  160.7540 C.3     1  UNL1        0.0104
     12 C         139.5398  144.1692  161.0976 C.3     1  UNL1        0.0768
     13 C         139.2368  143.0739  160.1185 C.3     1  UNL1        0.0095
     14 C         138.6133  141.8443  159.5275 C.3     1  UNL1        0.0005
     15 C         138.3139  142.6871  161.2359 C.3     1  UNL1        0.0005
     16 C         139.9431  143.0337  158.7959 C.3     1  UNL1        0.0162
     17 N         141.6589  144.0486  157.1296 N.3     1  UNL1       -0.2961
     18 H         141.7040  145.0095  156.7906 H       1  UNL1        0.1235
     19 C         141.1056  143.2195  156.0087 C.3     1  UNL1        0.0798
     20 C         141.9828  142.2250  155.3076 C.3     1  UNL1        0.0221
     21 C         139.1005  144.7585  155.4078 C.ar    1  UNL1        0.1359
     22 C         137.6700  144.9237  154.9880 C.ar    1  UNL1        0.0366
     23 C         136.8140  143.7153  154.7493 C.ar    1  UNL1        0.0031
     24 C         137.3885  142.3416  154.9304 C.ar    1  UNL1       -0.0001
     25 C         138.8190  142.1764  155.3502 C.ar    1  UNL1        0.0000
     26 C         139.6750  143.3848  155.5889 C.ar    1  UNL1        0.0259
     27 C         139.4270  147.1128  156.4569 C.3     1  UNL1        0.2525
     28 O         139.9565  145.9669  155.6466 O.3     1  UNL1       -0.4717
     29 C         141.9867  141.6123  166.4394 C.2     1  UNL1        0.2286
     30 O         143.0389  142.3026  167.2557 O.2     1  UNL1       -0.2746
     31 N         142.1814  140.1866  166.0161 N.am    1  UNL1       -0.2793
     32 C         143.3697  139.3275  166.3319 C.3     1  UNL1        0.0935
     33 C         143.1447  137.9794  165.7136 C.3     1  UNL1        0.0233
     34 C         141.8173  138.0055  165.0155 C.3     1  UNL1        0.0233
     35 C         141.2219  139.3695  165.2024 C.3     1  UNL1        0.0935
     36 C         140.4665  142.1325  167.5057 C.ar    1  UNL1       -0.0145
     37 C         140.6262  143.2668  168.4740 C.ar    1  UNL1       -0.0038
     38 C         140.3529  143.0514  169.9331 C.ar    1  UNL1       -0.0003
     39 C         139.9200  141.7017  170.4238 C.ar    1  UNL1       -0.0000
     40 C         139.7604  140.5674  169.4555 C.ar    1  UNL1       -0.0003
     41 C         140.0336  140.7827  167.9964 C.ar    1  UNL1       -0.0038
@<TRIPOS>BOND
     1    27    28    1
     2    28    21    1
     3    21    22   ar
     4    22    23   ar
     5    23    24   ar
     6    24    25   ar
     7    25    26   ar
     8    26    19    1
     9    19    20    1
    10    19    17    1
    11     9    17    1
    12     9    10    1
    13    10    11    1
    14    11    12    1
    15    12     1    1
    16     1     2    2
    17     1     3   am
    18     3     4    1
    19     4     5    1
    20     5     6    1
    21     6    29    1
    22    29    30    2
    23    29    31   am
    24    31    32    1
    25    32    33    1
    26    33    34    1
    27    34    35    1
    28     6    36    1
    29    36    37   ar
    30    37    38   ar
    31    38    39   ar
    32    39    40   ar
    33    40    41   ar
    34     6     7    1
    35     7     8    1
    36    12    13    1
    37    13    14    1
    38    13    15    1
    39    13    16    1
    40    26    21   ar
    41    16     9    1
    42     8     3    1
    43    35    31    1
    44    41    36   ar
    45    17    18    1
@<TRIPOS>MOLECULE
*****
 41 45 0 0 0
SMALL
GASTEIGER

@<TRIPOS>ATOM
      1 C         140.3971  144.2080  161.5082 C.2     1  UNL1        0.2251
      2 O         141.2213  145.2296  162.2342 O.2     1  UNL1       -0.2749
      3 N         140.1327  144.3636  160.0399 N.am    1  UNL1       -0.2795
      4 C         139.3085  143.3420  159.3139 C.3     1  UNL1        0.0942
      5 C         139.0441  143.4976  157.8456 C.3     1  UNL1        0.0343
      6 C         139.6038  144.6748  157.1033 C.3     1  UNL1        0.0911
      7 C         140.4280  145.6964  157.8294 C.3     1  UNL1        0.0343
      8 C         140.6924  145.5408  159.2976 C.3     1  UNL1        0.0942
      9 C         138.7178  140.6765  163.7349 C.3     1  UNL1        0.0542
     10 C         139.8428  140.4836  162.7617 C.3     1  UNL1        0.0162
     11 C         140.4026  141.6607  162.0195 C.3     1  UNL1        0.0104
     12 C         139.8374  143.0308  162.2504 C.3     1  UNL1        0.0768
     13 C         138.7123  143.2237  163.2236 C.3     1  UNL1        0.0095
     14 C         137.6541  143.9081  164.0371 C.3     1  UNL1        0.0005
     15 C         138.9046  144.6385  162.7639 C.3     1  UNL1        0.0005
     16 C         138.1526  142.0466  163.9659 C.3     1  UNL1        0.0162
     17 N         138.1580  139.4993  164.4772 N.3     1  UNL1       -0.2961
     18 H         137.1600  139.6734  164.5958 H       1  UNL1        0.1235
     19 C         138.6984  139.1392  165.8293 C.3     1  UNL1        0.0798
     20 C         137.7652  138.6925  166.9153 C.3     1  UNL1        0.0221
     21 C         141.1227  138.3381  165.3483 C.ar    1  UNL1        0.1359
     22 C         142.5963  138.4248  165.6144 C.ar    1  UNL1        0.0366
     23 C         143.1194  139.3992  166.6278 C.ar    1  UNL1        0.0031
     24 C         142.1688  140.2869  167.3750 C.ar    1  UNL1       -0.0001
     25 C         140.6952  140.2003  167.1088 C.ar    1  UNL1        0.0000
     26 C         140.1721  139.2259  166.0955 C.ar    1  UNL1        0.0259
     27 C         141.2802  137.2266  163.0053 C.3     1  UNL1        0.2525
     28 O         140.5996  137.3637  164.3349 O.3     1  UNL1       -0.4717
     29 C         138.8877  143.9780  155.9845 C.2     1  UNL1        0.2286
     30 O         137.6112  144.5480  155.4411 O.2     1  UNL1       -0.2746
     31 N         139.4481  142.7111  155.4093 N.am    1  UNL1       -0.2793
     32 C         138.8468  141.9073  154.2948 C.3     1  UNL1        0.0935
     33 C         139.7353  140.7250  154.0442 C.3     1  UNL1        0.0233
     34 C         140.8858  140.7981  155.0039 C.3     1  UNL1        0.0233
     35 C         140.7083  142.0256  155.8476 C.3     1  UNL1        0.0935
     36 C         139.9148  145.6099  155.9725 C.ar    1  UNL1       -0.0145
     37 C         140.9513  145.2371  154.9543 C.ar    1  UNL1       -0.0038
     38 C         141.2622  146.1723  153.8235 C.ar    1  UNL1       -0.0003
     39 C         140.5366  147.4803  153.7109 C.ar    1  UNL1       -0.0000
     40 C         139.5002  147.8531  154.7291 C.ar    1  UNL1       -0.0003
     41 C         139.1892  146.9180  155.8599 C.ar    1  UNL1       -0.0038
@<TRIPOS>BOND
     1    27    28    1
     2    28    21    1
     3    21    22   ar
     4    22    23   ar
     5    23    24   ar
     6    24    25   ar
     7    25    26   ar
     8    26    19    1
     9    19    20    1
    10    19    17    1
    11     9    17    1
    12     9    10    1
    13    10    11    1
    14    11    12    1
    15    12     1    1
    16     1     2    2
    17     1     3   am
    18     3     4    1
    19     4     5    1
    20     5     6    1
    21     6    29    1
    22    29    30    2
    23    29    31   am
    24    31    32    1
    25    32    33    1
    26    33    34    1
    27    34    35    1
    28     6    36    1
    29    36    37   ar
    30    37    38   ar
    31    38    39   ar
    32    39    40   ar
    33    40    41   ar
    34     6     7    1
    35     7     8    1
    36    12    13    1
    37    13    14    1
    38    13    15    1
    39    13    16    1
    40    26    21   ar
    41    16     9    1
    42     8     3    1
    43    35    31    1
    44    41    36   ar
    45    17    18    1
@<TRIPOS>MOLECULE
*****
 41 45 0 0 0
SMALL
GASTEIGER

@<TRIPOS>ATOM
      1 C         143.2300  143.9116  162.4219 C.2     1  UNL1        0.2251
      2 O         144.5803  144.5633  162.4655 O.2     1  UNL1       -0.2749
      3 N         142.7235  143.1552  163.6141 N.am    1  UNL1       -0.2795
      4 C         141.3731  142.5035  163.5705 C.3     1  UNL1        0.0942
      5 C         140.8665  141.7472  164.7627 C.3     1  UNL1        0.0343
      6 C         141.7103  141.6425  165.9985 C.3     1  UNL1        0.0911
      7 C         143.0606  142.2942  166.0420 C.3     1  UNL1        0.0343
      8 C         143.5672  143.0506  164.8499 C.3     1  UNL1        0.0942
      9 C         140.6988  144.2254  158.7146 C.3     1  UNL1        0.0542
     10 C         140.4045  145.0967  159.8996 C.3     1  UNL1        0.0162
     11 C         141.2482  144.9921  161.1354 C.3     1  UNL1        0.0104
     12 C         142.3862  144.0162  161.1861 C.3     1  UNL1        0.0768
     13 C         142.6805  143.1450  160.0011 C.3     1  UNL1        0.0095
     14 C         143.3485  142.1129  159.1416 C.3     1  UNL1        0.0005
     15 C         143.7562  142.6820  160.9383 C.3     1  UNL1        0.0005
     16 C         141.8368  143.2496  158.7653 C.3     1  UNL1        0.0162
     17 N         139.8550  144.3301  157.4788 N.3     1  UNL1       -0.2961
     18 H         139.3316  145.2024  157.5526 H       1  UNL1        0.1235
     19 C         138.8606  143.2544  157.1563 C.3     1  UNL1        0.0798
     20 C         137.6977  143.5531  156.2572 C.3     1  UNL1        0.0221
     21 C         138.5666  141.5909  159.1302 C.ar    1  UNL1        0.1359
     22 C         138.7351  140.2164  159.7068 C.ar    1  UNL1        0.0366
     23 C         139.3661  139.1310  158.8861 C.ar    1  UNL1        0.0031
     24 C         139.8287  139.4200  157.4888 C.ar    1  UNL1       -0.0001
     25 C         139.6602  140.7944  156.9122 C.ar    1  UNL1        0.0000
     26 C         139.0291  141.8799  157.7329 C.ar    1  UNL1        0.0259
     27 C         138.0989  142.6804  161.4420 C.3     1  UNL1        0.2525
     28 O         137.9355  142.6763  159.9509 O.3     1  UNL1       -0.4717
     29 C         140.5079  140.8601  166.4370 C.2     1  UNL1        0.2286
     30 O         139.6608  141.3589  167.5699 O.2     1  UNL1       -0.2746
     31 N         140.1528  139.5789  165.7425 N.am    1  UNL1       -0.2793
     32 C         138.9867  138.6933  166.0683 C.3     1  UNL1        0.0935
     33 C         139.0146  137.5253  165.1274 C.3     1  UNL1        0.0233
     34 C         140.1978  137.6891  164.2202 C.3     1  UNL1        0.0233
     35 C         140.9013  138.9582  164.6003 C.3     1  UNL1        0.0935
     36 C         142.1364  141.2661  167.3865 C.ar    1  UNL1       -0.0145
     37 C         142.2237  139.8209  167.7783 C.ar    1  UNL1       -0.0038
     38 C         142.6498  139.4445  169.1664 C.ar    1  UNL1       -0.0003
     39 C         142.9886  140.5135  170.1627 C.ar    1  UNL1       -0.0000
     40 C         142.9013  141.9587  169.7709 C.ar    1  UNL1       -0.0003
     41 C         142.4752  142.3351  168.3829 C.ar    1  UNL1       -0.0038
@<TRIPOS>BOND
     1    27    28    1
     2    28    21    1
     3    21    22   ar
     4    22    23   ar
     5    23    24   ar
     6    24    25   ar
     7    25    26   ar
     8    26    19    1
     9    19    20    1
    10    19    17    1
    11     9    17    1
    12     9    10    1
    13    10    11    1
    14    11    12    1
    15    12     1    1
    16     1     2    2
    17     1     3   am
    18     3     4    1
    19     4     5    1
    20     5     6    1
    21     6    29    1
    22    29    30    2
    23    29    31   am
    24    31    32    1
    25    32    33    1
    26    33    34    1
    27    34    35    1
    28     6    36    1
    29    36    37   ar
    30    37    38   ar
    31    38    39   ar
    32    39    40   ar
    33    40    41   ar
    34     6     7    1
    35     7     8    1
    36    12    13    1
    37    13    14    1
    38    13    15    1
    39    13    16    1
    40    26    21   ar
    41    16     9    1
    42     8     3    1
    43    35    31    1
    44    41    36   ar
    45    17    18    1
@<TRIPOS>MOLECULE
*****
 41 45 0 0 0
SMALL
GASTEIGER

@<TRIPOS>ATOM
      1 C         140.3432  145.2536  162.0066 C.2     1  UNL1        0.2251
      2 O         139.9568  146.6999  162.1004 O.2     1  UNL1       -0.2749
      3 N         140.6260  144.6381  160.6682 N.am    1  UNL1       -0.2795
      4 C         141.0124  143.1917  160.5745 C.3     1  UNL1        0.0942
      5 C         141.2953  142.5763  159.2361 C.3     1  UNL1        0.0343
      6 C         141.1917  143.4072  157.9915 C.3     1  UNL1        0.0911
      7 C         140.8053  144.8535  158.0853 C.3     1  UNL1        0.0343
      8 C         140.5224  145.4689  159.4237 C.3     1  UNL1        0.0942
      9 C         140.6538  142.7609  165.7402 C.3     1  UNL1        0.0542
     10 C         141.8979  143.2249  165.0426 C.3     1  UNL1        0.0162
     11 C         141.7944  144.0558  163.7981 C.3     1  UNL1        0.0104
     12 C         140.4467  144.4226  163.2512 C.3     1  UNL1        0.0768
     13 C         139.2026  143.9586  163.9488 C.3     1  UNL1        0.0095
     14 C         137.7469  143.7590  164.2505 C.3     1  UNL1        0.0005
     15 C         138.5935  144.7202  162.8091 C.3     1  UNL1        0.0005
     16 C         139.3061  143.1277  165.1933 C.3     1  UNL1        0.0162
     17 N         140.7574  141.9299  166.9848 N.3     1  UNL1       -0.2961
     18 H         141.1513  142.5313  167.7084 H       1  UNL1        0.1235
     19 C         141.5703  140.6694  166.9795 C.3     1  UNL1        0.0798
     20 C         142.6558  140.4727  167.9958 C.3     1  UNL1        0.0221
     21 C         139.9327  138.9911  165.8606 C.ar    1  UNL1        0.1359
     22 C         139.6602  137.9272  164.8390 C.ar    1  UNL1        0.0366
     23 C         140.7526  137.4775  163.9146 C.ar    1  UNL1        0.0031
     24 C         142.1175  138.0918  164.0118 C.ar    1  UNL1       -0.0001
     25 C         142.3901  139.1558  165.0334 C.ar    1  UNL1        0.0000
     26 C         141.2977  139.6054  165.9578 C.ar    1  UNL1        0.0259
     27 C         137.6540  138.5562  167.0303 C.3     1  UNL1        0.2525
     28 O         138.8403  139.4407  166.7850 O.3     1  UNL1       -0.4717
     29 C         141.5902  142.0906  157.3933 C.2     1  UNL1        0.2286
     30 O         140.5379  141.1001  156.9916 O.2     1  UNL1       -0.2746
     31 N         143.0411  141.7645  157.1969 N.am    1  UNL1       -0.2793
     32 C         143.5885  140.4953  156.6143 C.3     1  UNL1        0.0935
     33 C         145.0851  140.5967  156.6059 C.3     1  UNL1        0.0233
     34 C         145.4626  141.9287  157.1832 C.3     1  UNL1        0.0233
     35 C         144.1994  142.6505  157.5484 C.3     1  UNL1        0.0935
     36 C         141.2265  143.7807  156.5392 C.ar    1  UNL1       -0.0145
     37 C         142.2388  144.7703  156.0434 C.ar    1  UNL1       -0.0038
     38 C         142.2736  145.1438  154.5910 C.ar    1  UNL1       -0.0003
     39 C         141.2961  144.5277  153.6345 C.ar    1  UNL1       -0.0000
     40 C         140.2838  143.5381  154.1304 C.ar    1  UNL1       -0.0003
     41 C         140.2489  143.1646  155.5827 C.ar    1  UNL1       -0.0038
@<TRIPOS>BOND
     1    27    28    1
     2    28    21    1
     3    21    22   ar
     4    22    23   ar
     5    23    24   ar
     6    24    25   ar
     7    25    26   ar
     8    26    19    1
     9    19    20    1
    10    19    17    1
    11     9    17    1
    12     9    10    1
    13    10    11    1
    14    11    12    1
    15    12     1    1
    16     1     2    2
    17     1     3   am
    18     3     4    1
    19     4     5    1
    20     5     6    1
    21     6    29    1
    22    29    30    2
    23    29    31   am
    24    31    32    1
    25    32    33    1
    26    33    34    1
    27    34    35    1
    28     6    36    1
    29    36    37   ar
    30    37    38   ar
    31    38    39   ar
    32    39    40   ar
    33    40    41   ar
    34     6     7    1
    35     7     8    1
    36    12    13    1
    37    13    14    1
    38    13    15    1
    39    13    16    1
    40    26    21   ar
    41    16     9    1
    42     8     3    1
    43    35    31    1
    44    41    36   ar
    45    17    18    1
