@<TRIPOS>MOLECULE
*****
 38 42 0 0 0
SMALL
GASTEIGER

@<TRIPOS>ATOM
      1 C         140.8453  138.9279  165.0251 C.ar    1  UNL1        0.1543
      2 N         140.9681  137.4789  164.6574 N.ar    1  UNL1       -0.2073
      3 C         140.8783  137.0597  163.2200 C.ar    1  UNL1        0.2015
      4 N         140.6658  138.0896  162.1503 N.ar    1  UNL1       -0.2045
      5 C         140.5430  139.5386  162.5180 C.ar    1  UNL1        0.1711
      6 C         140.6328  139.9577  163.9554 C.ar    1  UNL1        0.1487
      7 N         140.4764  141.4485  164.0142 N.ar    1  UNL1       -0.2220
      8 C         140.2899  141.9505  162.6131 C.ar    1  UNL1        0.1497
      9 N         140.3311  140.7702  161.6884 N.ar    1  UNL1       -0.2753
     10 C         140.0963  143.3818  162.2077 C.ar    1  UNL1        0.0451
     11 C         141.1088  144.0563  161.3305 C.ar    1  UNL1        0.0038
     12 C         140.9152  145.4875  160.9252 C.ar    1  UNL1        0.0002
     13 C         139.7090  146.2440  161.3972 C.ar    1  UNL1        0.0009
     14 C         138.6965  145.5694  162.2745 C.ar    1  UNL1        0.0115
     15 C         138.8901  144.1383  162.6798 C.ar    1  UNL1        0.0606
     16 CL        137.8776  143.4636  163.5571 Cl      1  UNL1       -0.0821
     17 C         140.1859  140.8137  160.1961 C.ar    1  UNL1        0.0668
     18 C         141.4048  140.8983  159.3260 C.ar    1  UNL1        0.0185
     19 C         141.2596  140.9419  157.8337 C.ar    1  UNL1        0.0129
     20 C         139.8954  140.9008  157.2114 C.ar    1  UNL1        0.0578
     21 CL        139.7502  140.9444  155.7191 Cl      1  UNL1       -0.0822
     22 C         138.6765  140.8162  158.0814 C.ar    1  UNL1        0.0129
     23 C         138.8217  140.7726  159.5737 C.ar    1  UNL1        0.0185
     24 C         141.1146  140.1856  169.3374 C.3     1  UNL1        0.1146
     25 C         142.3665  139.9532  168.5444 C.3     1  UNL1        0.0448
     26 C         142.2767  139.5340  167.1069 C.3     1  UNL1        0.0940
     27 N         140.9351  139.3471  166.4626 N.pl3   1  UNL1       -0.2918
     28 C         139.6833  139.5795  167.2556 C.3     1  UNL1        0.0940
     29 C         139.7730  139.9988  168.6930 C.3     1  UNL1        0.0448
     30 C         140.2209  140.5237  170.4937 C.2     1  UNL1        0.2320
     31 N         139.8004  139.4517  171.4550 N.am    1  UNL1       -0.3278
     32 O         139.7477  141.9337  170.6887 O.2     1  UNL1       -0.2740
     33 H         140.1110  138.5263  171.3271 H       1  UNL1        0.1450
     34 H         139.2139  139.6736  172.2139 H       1  UNL1        0.1450
     35 N         142.1459  140.4898  170.3834 N.3     1  UNL1       -0.2926
     36 H         141.6455  140.8610  171.1910 H       1  UNL1        0.1236
     37 C         143.0805  142.9139  170.3652 C.3     1  UNL1        0.0185
     38 C         143.2574  141.4512  170.0834 C.3     1  UNL1        0.0689
@<TRIPOS>BOND
     1    37    38    1
     2    38    35    1
     3    35    24    1
     4    24    30    1
     5    30    31   am
     6    30    32    2
     7    24    25    1
     8    25    26    1
     9    26    27    1
    10    27     1    1
    11     1     2   ar
    12     2     3   ar
    13     3     4   ar
    14     4     5   ar
    15     5     6   ar
    16     6     7   ar
    17     7     8   ar
    18     8    10    1
    19    10    11   ar
    20    11    12   ar
    21    12    13   ar
    22    13    14   ar
    23    14    15   ar
    24    15    16    1
    25     8     9   ar
    26     9    17    1
    27    17    18   ar
    28    18    19   ar
    29    19    20   ar
    30    20    21    1
    31    20    22   ar
    32    22    23   ar
    33    27    28    1
    34    28    29    1
    35    29    24    1
    36     6     1   ar
    37    15    10   ar
    38    23    17   ar
    39     9     5   ar
    40    35    36    1
    41    31    33    1
    42    31    34    1
@<TRIPOS>MOLECULE
*****
 38 42 0 0 0
SMALL
GASTEIGER

@<TRIPOS>ATOM
      1 C         140.1858  138.4241  162.2766 C.ar    1  UNL1        0.1543
      2 N         139.2190  137.4031  162.7991 N.ar    1  UNL1       -0.2073
      3 C         138.7311  137.4879  164.2149 C.ar    1  UNL1        0.2015
      4 N         139.2099  138.5935  165.1083 N.ar    1  UNL1       -0.2045
      5 C         140.1766  139.6145  164.5859 C.ar    1  UNL1        0.1711
      6 C         140.6646  139.5298  163.1701 C.ar    1  UNL1        0.1487
      7 N         141.6092  140.6713  162.9362 N.ar    1  UNL1       -0.2220
      8 C         141.7050  141.4616  164.2075 C.ar    1  UNL1        0.1497
      9 N         140.8196  140.8084  165.2271 N.ar    1  UNL1       -0.2753
     10 C         142.5396  142.6894  164.4217 C.ar    1  UNL1        0.0451
     11 C         143.8030  142.6066  165.2260 C.ar    1  UNL1        0.0038
     12 C         144.6375  143.8344  165.4402 C.ar    1  UNL1        0.0002
     13 C         144.2087  145.1451  164.8500 C.ar    1  UNL1        0.0009
     14 C         142.9454  145.2279  164.0457 C.ar    1  UNL1        0.0115
     15 C         142.1108  144.0001  163.8315 C.ar    1  UNL1        0.0606
     16 CL        140.8474  144.0829  163.0272 Cl      1  UNL1       -0.0821
     17 C         140.6134  141.2684  166.6398 C.ar    1  UNL1        0.0668
     18 C         140.4897  142.7325  166.9414 C.ar    1  UNL1        0.0185
     19 C         140.2835  143.1925  168.3542 C.ar    1  UNL1        0.0129
     20 C         140.2011  142.1883  169.4654 C.ar    1  UNL1        0.0578
     21 CL        139.9949  142.6483  170.8782 Cl      1  UNL1       -0.0822
     22 C         140.3248  140.7242  169.1638 C.ar    1  UNL1        0.0129
     23 C         140.5310  140.2642  167.7511 C.ar    1  UNL1        0.0185
     24 C         141.6498  138.1700  158.0290 C.3     1  UNL1        0.1146
     25 C         140.2145  138.5039  158.3088 C.3     1  UNL1        0.0448
     26 C         139.7265  138.5886  159.7248 C.3     1  UNL1        0.0940
     27 N         140.6738  138.3394  160.8607 N.pl3   1  UNL1       -0.2918
     28 C         142.1091  138.0054  160.5809 C.3     1  UNL1        0.0940
     29 C         142.5971  137.9207  159.1650 C.3     1  UNL1        0.0448
     30 C         142.9078  137.8886  157.2621 C.2     1  UNL1        0.2320
     31 N         143.3143  136.4723  156.9816 N.am    1  UNL1       -0.3278
     32 O         143.7595  139.0236  156.7758 O.2     1  UNL1       -0.2740
     33 H         142.7554  135.7273  157.3007 H       1  UNL1        0.1450
     34 H         144.1400  136.2876  156.4782 H       1  UNL1        0.1450
     35 N         141.1394  138.3215  156.6267 N.3     1  UNL1       -0.2926
     36 H         140.9149  139.3084  156.5001 H       1  UNL1        0.1236
     37 C         140.0995  136.4070  155.2114 C.3     1  UNL1        0.0185
     38 C         139.9385  137.5432  156.1774 C.3     1  UNL1        0.0689
@<TRIPOS>BOND
     1    37    38    1
     2    38    35    1
     3    35    24    1
     4    24    30    1
     5    30    31   am
     6    30    32    2
     7    24    25    1
     8    25    26    1
     9    26    27    1
    10    27     1    1
    11     1     2   ar
    12     2     3   ar
    13     3     4   ar
    14     4     5   ar
    15     5     6   ar
    16     6     7   ar
    17     7     8   ar
    18     8    10    1
    19    10    11   ar
    20    11    12   ar
    21    12    13   ar
    22    13    14   ar
    23    14    15   ar
    24    15    16    1
    25     8     9   ar
    26     9    17    1
    27    17    18   ar
    28    18    19   ar
    29    19    20   ar
    30    20    21    1
    31    20    22   ar
    32    22    23   ar
    33    27    28    1
    34    28    29    1
    35    29    24    1
    36     6     1   ar
    37    15    10   ar
    38    23    17   ar
    39     9     5   ar
    40    35    36    1
    41    31    33    1
    42    31    34    1
@<TRIPOS>MOLECULE
*****
 38 42 0 0 0
SMALL
GASTEIGER

@<TRIPOS>ATOM
      1 C         139.1381  143.9608  161.9741 C.ar    1  UNL1        0.1543
      2 N         137.8587  144.5857  162.4459 N.ar    1  UNL1       -0.2073
      3 C         137.3910  144.3651  163.8539 C.ar    1  UNL1        0.2015
      4 N         138.2027  143.5197  164.7901 N.ar    1  UNL1       -0.2045
      5 C         139.4821  142.8949  164.3183 C.ar    1  UNL1        0.1711
      6 C         139.9498  143.1155  162.9103 C.ar    1  UNL1        0.1487
      7 N         141.2426  142.3763  162.7301 N.ar    1  UNL1       -0.2220
      8 C         141.5739  141.6989  164.0268 C.ar    1  UNL1        0.1497
      9 N         140.4858  142.0195  165.0083 N.ar    1  UNL1       -0.2753
     10 C         142.7812  140.8501  164.2949 C.ar    1  UNL1        0.0451
     11 C         142.6189  139.4797  164.8829 C.ar    1  UNL1        0.0038
     12 C         143.8262  138.6309  165.1510 C.ar    1  UNL1        0.0002
     13 C         145.1958  139.1525  164.8311 C.ar    1  UNL1        0.0009
     14 C         145.3580  140.5228  164.2432 C.ar    1  UNL1        0.0115
     15 C         144.1507  141.3716  163.9751 C.ar    1  UNL1        0.0606
     16 CL        144.3129  142.7421  163.3871 Cl      1  UNL1       -0.0821
     17 C         140.4140  141.5474  166.4303 C.ar    1  UNL1        0.0668
     18 C         141.2182  142.2383  167.4914 C.ar    1  UNL1        0.0185
     19 C         141.1464  141.7662  168.9134 C.ar    1  UNL1        0.0129
     20 C         140.2704  140.6032  169.2743 C.ar    1  UNL1        0.0578
     21 CL        140.1986  140.1312  170.6963 Cl      1  UNL1       -0.0822
     22 C         139.4663  139.9124  168.2132 C.ar    1  UNL1        0.0129
     23 C         139.5381  140.3845  166.7912 C.ar    1  UNL1        0.0185
     24 C         140.5414  144.6225  157.7499 C.3     1  UNL1        0.1146
     25 C         139.7580  143.3910  158.0957 C.3     1  UNL1        0.0448
     26 C         139.2902  143.1704  159.5038 C.3     1  UNL1        0.0940
     27 N         139.6059  144.1814  160.5660 N.pl3   1  UNL1       -0.2918
     28 C         140.3894  145.4129  160.2202 C.3     1  UNL1        0.0940
     29 C         140.8571  145.6334  158.8122 C.3     1  UNL1        0.0448
     30 C         141.3077  145.6236  156.9372 C.2     1  UNL1        0.2320
     31 N         142.5529  146.2469  157.4948 N.am    1  UNL1       -0.3278
     32 O         140.8287  146.0016  155.5669 O.2     1  UNL1       -0.2740
     33 H         142.8673  145.9988  158.3941 H       1  UNL1        0.1450
     34 H         143.0558  146.9039  156.9613 H       1  UNL1        0.1450
     35 N         140.4918  143.9592  156.4054 N.3     1  UNL1       -0.2926
     36 H         139.5095  143.9166  156.1342 H       1  UNL1        0.1236
     37 C         142.2823  142.3672  155.4007 C.3     1  UNL1        0.0185
     38 C         141.0500  142.5781  156.2294 C.3     1  UNL1        0.0689
@<TRIPOS>BOND
     1    37    38    1
     2    38    35    1
     3    35    24    1
     4    24    30    1
     5    30    31   am
     6    30    32    2
     7    24    25    1
     8    25    26    1
     9    26    27    1
    10    27     1    1
    11     1     2   ar
    12     2     3   ar
    13     3     4   ar
    14     4     5   ar
    15     5     6   ar
    16     6     7   ar
    17     7     8   ar
    18     8    10    1
    19    10    11   ar
    20    11    12   ar
    21    12    13   ar
    22    13    14   ar
    23    14    15   ar
    24    15    16    1
    25     8     9   ar
    26     9    17    1
    27    17    18   ar
    28    18    19   ar
    29    19    20   ar
    30    20    21    1
    31    20    22   ar
    32    22    23   ar
    33    27    28    1
    34    28    29    1
    35    29    24    1
    36     6     1   ar
    37    15    10   ar
    38    23    17   ar
    39     9     5   ar
    40    35    36    1
    41    31    33    1
    42    31    34    1
@<TRIPOS>MOLECULE
*****
 38 42 0 0 0
SMALL
GASTEIGER

@<TRIPOS>ATOM
      1 C         140.0885  138.3955  162.5427 C.ar    1  UNL1        0.1543
      2 N         139.2322  137.3307  163.1615 N.ar    1  UNL1       -0.2073
      3 C         138.9164  137.3800  164.6271 C.ar    1  UNL1        0.2015
      4 N         139.4568  138.4940  165.4737 N.ar    1  UNL1       -0.2045
      5 C         140.3130  139.5588  164.8549 C.ar    1  UNL1        0.1711
      6 C         140.6289  139.5096  163.3894 C.ar    1  UNL1        0.1487
      7 N         141.4934  140.6908  163.0615 N.ar    1  UNL1       -0.2220
      8 C         141.7119  141.4700  164.3245 C.ar    1  UNL1        0.1497
      9 N         140.9823  140.7704  165.4328 N.ar    1  UNL1       -0.2753
     10 C         142.5182  142.7280  164.4561 C.ar    1  UNL1        0.0451
     11 C         143.8194  142.7103  165.2022 C.ar    1  UNL1        0.0038
     12 C         144.6257  143.9682  165.3337 C.ar    1  UNL1        0.0002
     13 C         144.1308  145.2439  164.7191 C.ar    1  UNL1        0.0009
     14 C         142.8297  145.2617  163.9730 C.ar    1  UNL1        0.0115
     15 C         142.0234  144.0037  163.8415 C.ar    1  UNL1        0.0606
     16 CL        140.7222  144.0214  163.0953 Cl      1  UNL1       -0.0821
     17 C         140.9311  141.2059  166.8673 C.ar    1  UNL1        0.0668
     18 C         140.4619  142.5874  167.2154 C.ar    1  UNL1        0.0185
     19 C         140.4107  143.0230  168.6498 C.ar    1  UNL1        0.0129
     20 C         140.8287  142.0770  169.7363 C.ar    1  UNL1        0.0578
     21 CL        140.7775  142.5125  171.1707 Cl      1  UNL1       -0.0822
     22 C         141.2979  140.6955  169.3882 C.ar    1  UNL1        0.0129
     23 C         141.3491  140.2599  167.9537 C.ar    1  UNL1        0.0185
     24 C         141.0360  138.2479  158.1460 C.3     1  UNL1        0.1146
     25 C         142.1395  138.1316  159.1554 C.3     1  UNL1        0.0448
     26 C         141.8236  138.1808  160.6209 C.3     1  UNL1        0.0940
     27 N         140.4043  138.3463  161.0771 N.pl3   1  UNL1       -0.2918
     28 C         139.3009  138.4627  160.0678 C.3     1  UNL1        0.0940
     29 C         139.6167  138.4135  158.6023 C.3     1  UNL1        0.0448
     30 C         140.3417  138.3148  156.8181 C.2     1  UNL1        0.2320
     31 N         139.3307  137.2708  156.4469 N.am    1  UNL1       -0.3278
     32 O         140.6584  139.4258  155.8613 O.2     1  UNL1       -0.2740
     33 H         139.1228  136.5416  157.0749 H       1  UNL1        0.1450
     34 H         138.8750  137.3147  155.5753 H       1  UNL1        0.1450
     35 N         142.2142  138.1056  157.2286 N.3     1  UNL1       -0.2926
     36 H         141.8981  138.3803  156.2986 H       1  UNL1        0.1236
     37 C         143.7696  136.5102  155.8925 C.3     1  UNL1        0.0185
     38 C         142.8929  136.7762  157.0802 C.3     1  UNL1        0.0689
@<TRIPOS>BOND
     1    37    38    1
     2    38    35    1
     3    35    24    1
     4    24    30    1
     5    30    31   am
     6    30    32    2
     7    24    25    1
     8    25    26    1
     9    26    27    1
    10    27     1    1
    11     1     2   ar
    12     2     3   ar
    13     3     4   ar
    14     4     5   ar
    15     5     6   ar
    16     6     7   ar
    17     7     8   ar
    18     8    10    1
    19    10    11   ar
    20    11    12   ar
    21    12    13   ar
    22    13    14   ar
    23    14    15   ar
    24    15    16    1
    25     8     9   ar
    26     9    17    1
    27    17    18   ar
    28    18    19   ar
    29    19    20   ar
    30    20    21    1
    31    20    22   ar
    32    22    23   ar
    33    27    28    1
    34    28    29    1
    35    29    24    1
    36     6     1   ar
    37    15    10   ar
    38    23    17   ar
    39     9     5   ar
    40    35    36    1
    41    31    33    1
    42    31    34    1
@<TRIPOS>MOLECULE
*****
 38 42 0 0 0
SMALL
GASTEIGER

@<TRIPOS>ATOM
      1 C         140.0194  139.6180  158.2620 C.ar    1  UNL1        0.1543
      2 N         139.0296  140.4430  157.4941 N.ar    1  UNL1       -0.2073
      3 C         138.3288  141.5883  158.1627 C.ar    1  UNL1        0.2015
      4 N         138.6179  141.9087  159.5993 N.ar    1  UNL1       -0.2045
      5 C         139.6077  141.0838  160.3673 C.ar    1  UNL1        0.1711
      6 C         140.3084  139.9385  159.6986 C.ar    1  UNL1        0.1487
      7 N         141.2272  139.3074  160.7025 N.ar    1  UNL1       -0.2220
      8 C         141.0943  140.0628  161.9915 C.ar    1  UNL1        0.1497
      9 N         140.0933  141.1606  161.7844 N.ar    1  UNL1       -0.2753
     10 C         141.8326  139.7715  163.2644 C.ar    1  UNL1        0.0451
     11 C         143.0699  140.5468  163.6080 C.ar    1  UNL1        0.0038
     12 C         143.8082  140.2555  164.8808 C.ar    1  UNL1        0.0002
     13 C         143.3092  139.1889  165.8100 C.ar    1  UNL1        0.0009
     14 C         142.0719  138.4137  165.4664 C.ar    1  UNL1        0.0115
     15 C         141.3337  138.7050  164.1936 C.ar    1  UNL1        0.0606
     16 CL        140.0963  137.9297  163.8500 Cl      1  UNL1       -0.0821
     17 C         139.6550  142.1599  162.8136 C.ar    1  UNL1        0.0668
     18 C         138.3224  142.0093  163.4854 C.ar    1  UNL1        0.0185
     19 C         137.8841  143.0086  164.5146 C.ar    1  UNL1        0.0129
     20 C         138.7784  144.1585  164.8721 C.ar    1  UNL1        0.0578
     21 CL        138.3401  145.1578  165.9013 Cl      1  UNL1       -0.0822
     22 C         140.1110  144.3092  164.2002 C.ar    1  UNL1        0.0129
     23 C         140.5493  143.3099  163.1710 C.ar    1  UNL1        0.0185
     24 C         142.1218  136.1819  156.2561 C.3     1  UNL1        0.1146
     25 C         140.6522  136.3907  156.0406 C.3     1  UNL1        0.0448
     26 C         139.9513  137.5361  156.7092 C.3     1  UNL1        0.0940
     27 N         140.7202  138.4727  157.5934 N.pl3   1  UNL1       -0.2918
     28 C         142.1899  138.2639  157.8089 C.3     1  UNL1        0.0940
     29 C         142.8907  137.1186  157.1403 C.3     1  UNL1        0.0448
     30 C         143.4894  135.5747  156.1521 C.2     1  UNL1        0.2320
     31 N         144.5206  136.1975  155.2584 N.am    1  UNL1       -0.3278
     32 O         143.8259  134.3445  156.9417 O.2     1  UNL1       -0.2740
     33 H         144.2998  137.0049  154.7401 H       1  UNL1        0.1450
     34 H         145.4182  135.7989  155.1901 H       1  UNL1        0.1450
     35 N         141.8279  135.0345  155.3359 N.3     1  UNL1       -0.2926
     36 H         142.7174  134.5714  155.1493 H       1  UNL1        0.1236
     37 C         141.7903  134.7157  152.7577 C.3     1  UNL1        0.0185
     38 C         141.1834  135.2865  154.0051 C.3     1  UNL1        0.0689
@<TRIPOS>BOND
     1    37    38    1
     2    38    35    1
     3    35    24    1
     4    24    30    1
     5    30    31   am
     6    30    32    2
     7    24    25    1
     8    25    26    1
     9    26    27    1
    10    27     1    1
    11     1     2   ar
    12     2     3   ar
    13     3     4   ar
    14     4     5   ar
    15     5     6   ar
    16     6     7   ar
    17     7     8   ar
    18     8    10    1
    19    10    11   ar
    20    11    12   ar
    21    12    13   ar
    22    13    14   ar
    23    14    15   ar
    24    15    16    1
    25     8     9   ar
    26     9    17    1
    27    17    18   ar
    28    18    19   ar
    29    19    20   ar
    30    20    21    1
    31    20    22   ar
    32    22    23   ar
    33    27    28    1
    34    28    29    1
    35    29    24    1
    36     6     1   ar
    37    15    10   ar
    38    23    17   ar
    39     9     5   ar
    40    35    36    1
    41    31    33    1
    42    31    34    1
@<TRIPOS>MOLECULE
*****
 38 42 0 0 0
SMALL
GASTEIGER

@<TRIPOS>ATOM
      1 C         141.1385  138.1046  162.3391 C.ar    1  UNL1        0.1543
      2 N         140.8353  136.8404  163.0874 N.ar    1  UNL1       -0.2073
      3 C         140.7781  136.8515  164.5862 C.ar    1  UNL1        0.2015
      4 N         141.0240  138.1267  165.3368 N.ar    1  UNL1       -0.2045
      5 C         141.3272  139.3908  164.5885 C.ar    1  UNL1        0.1711
      6 C         141.3845  139.3798  163.0897 C.ar    1  UNL1        0.1487
      7 N         141.7037  140.7707  162.6277 N.ar    1  UNL1       -0.2220
      8 C         141.8438  141.6414  163.8411 C.ar    1  UNL1        0.1497
      9 N         141.6111  140.7886  165.0529 N.ar    1  UNL1       -0.2753
     10 C         142.1609  143.1076  163.8424 C.ar    1  UNL1        0.0451
     11 C         141.0634  144.1124  163.6532 C.ar    1  UNL1        0.0038
     12 C         141.3806  145.5785  163.6546 C.ar    1  UNL1        0.0002
     13 C         142.7951  146.0397  163.8452 C.ar    1  UNL1        0.0009
     14 C         143.8926  145.0348  164.0344 C.ar    1  UNL1        0.0115
     15 C         143.5754  143.5688  164.0330 C.ar    1  UNL1        0.0606
     16 CL        144.6729  142.5638  164.2222 Cl      1  UNL1       -0.0821
     17 C         141.6546  141.2521  166.4788 C.ar    1  UNL1        0.0668
     18 C         140.3803  141.4214  167.2517 C.ar    1  UNL1        0.0185
     19 C         140.4238  141.8849  168.6776 C.ar    1  UNL1        0.0129
     20 C         141.7418  142.1791  169.3307 C.ar    1  UNL1        0.0578
     21 CL        141.7853  142.6427  170.7566 Cl      1  UNL1       -0.0822
     22 C         143.0161  142.0098  168.5578 C.ar    1  UNL1        0.0129
     23 C         142.9725  141.5463  167.1319 C.ar    1  UNL1        0.0185
     24 C         141.3103  138.0716  157.8424 C.3     1  UNL1        0.1146
     25 C         142.5644  137.8782  158.6423 C.3     1  UNL1        0.0448
     26 C         142.5071  137.8892  160.1412 C.3     1  UNL1        0.0940
     27 N         141.1958  138.0936  160.8402 N.pl3   1  UNL1       -0.2918
     28 C         139.9417  138.2869  160.0403 C.3     1  UNL1        0.0940
     29 C         139.9989  138.2759  158.5415 C.3     1  UNL1        0.0448
     30 C         140.4020  138.2107  156.6568 C.2     1  UNL1        0.2320
     31 N         139.2588  137.2574  156.4718 N.am    1  UNL1       -0.3278
     32 O         140.6370  139.3032  155.6562 O.2     1  UNL1       -0.2740
     33 H         139.1046  136.5404  157.1286 H       1  UNL1        0.1450
     34 H         138.6627  137.3488  155.6937 H       1  UNL1        0.1450
     35 N         142.3062  137.9156  156.7317 N.3     1  UNL1       -0.2926
     36 H         141.8028  138.0790  155.8597 H       1  UNL1        0.1236
     37 C         144.1251  136.5038  155.5282 C.3     1  UNL1        0.0185
     38 C         143.0495  136.6232  156.5669 C.3     1  UNL1        0.0689
@<TRIPOS>BOND
     1    37    38    1
     2    38    35    1
     3    35    24    1
     4    24    30    1
     5    30    31   am
     6    30    32    2
     7    24    25    1
     8    25    26    1
     9    26    27    1
    10    27     1    1
    11     1     2   ar
    12     2     3   ar
    13     3     4   ar
    14     4     5   ar
    15     5     6   ar
    16     6     7   ar
    17     7     8   ar
    18     8    10    1
    19    10    11   ar
    20    11    12   ar
    21    12    13   ar
    22    13    14   ar
    23    14    15   ar
    24    15    16    1
    25     8     9   ar
    26     9    17    1
    27    17    18   ar
    28    18    19   ar
    29    19    20   ar
    30    20    21    1
    31    20    22   ar
    32    22    23   ar
    33    27    28    1
    34    28    29    1
    35    29    24    1
    36     6     1   ar
    37    15    10   ar
    38    23    17   ar
    39     9     5   ar
    40    35    36    1
    41    31    33    1
    42    31    34    1
@<TRIPOS>MOLECULE
*****
 38 42 0 0 0
SMALL
GASTEIGER

@<TRIPOS>ATOM
      1 C         144.0568  140.7463  161.9060 C.ar    1  UNL1        0.1543
      2 N         145.3151  141.5409  162.0940 N.ar    1  UNL1       -0.2073
      3 C         145.6898  142.0405  163.4578 C.ar    1  UNL1        0.2015
      4 N         144.8063  141.7456  164.6335 N.ar    1  UNL1       -0.2045
      5 C         143.5481  140.9510  164.4456 C.ar    1  UNL1        0.1711
      6 C         143.1733  140.4514  163.0818 C.ar    1  UNL1        0.1487
      7 N         141.8814  139.6987  163.2027 N.ar    1  UNL1       -0.2220
      8 C         141.4578  139.7332  164.6412 C.ar    1  UNL1        0.1497
      9 N         142.4878  140.5072  165.4093 N.ar    1  UNL1       -0.2753
     10 C         140.2212  139.1041  165.2115 C.ar    1  UNL1        0.0451
     11 C         139.2681  139.9277  166.0260 C.ar    1  UNL1        0.0038
     12 C         138.0316  139.2986  166.5963 C.ar    1  UNL1        0.0002
     13 C         137.7481  137.8460  166.3521 C.ar    1  UNL1        0.0009
     14 C         138.7012  137.0225  165.5376 C.ar    1  UNL1        0.0115
     15 C         139.9377  137.6516  164.9673 C.ar    1  UNL1        0.0606
     16 CL        140.8909  136.8280  164.1528 Cl      1  UNL1       -0.0821
     17 C         142.4622  140.7880  166.8826 C.ar    1  UNL1        0.0668
     18 C         142.6538  139.6689  167.8629 C.ar    1  UNL1        0.0185
     19 C         142.6281  139.9497  169.3361 C.ar    1  UNL1        0.0129
     20 C         142.4108  141.3497  169.8291 C.ar    1  UNL1        0.0578
     21 CL        142.3852  141.6305  171.3024 Cl      1  UNL1       -0.0822
     22 C         142.2192  142.4687  168.8488 C.ar    1  UNL1        0.0129
     23 C         142.2449  142.1879  167.3756 C.ar    1  UNL1        0.0185
     24 C         142.9324  139.2473  157.8147 C.3     1  UNL1        0.1146
     25 C         143.2097  140.7058  158.0290 C.3     1  UNL1        0.0448
     26 C         143.5845  141.2055  159.3928 C.3     1  UNL1        0.0940
     27 N         143.6820  140.2467  160.5422 N.pl3   1  UNL1       -0.2918
     28 C         143.4047  138.7882  160.3279 C.3     1  UNL1        0.0940
     29 C         143.0299  138.2885  158.9642 C.3     1  UNL1        0.0448
     30 C         142.5785  137.9675  157.1170 C.2     1  UNL1        0.2320
     31 N         143.6219  137.2265  156.3346 N.am    1  UNL1       -0.3278
     32 O         141.1812  137.4286  157.2019 O.2     1  UNL1       -0.2740
     33 H         144.5390  137.5802  156.2789 H       1  UNL1        0.1450
     34 H         143.3896  136.3865  155.8767 H       1  UNL1        0.1450
     35 N         142.7120  139.7617  156.4230 N.3     1  UNL1       -0.2926
     36 H         143.6069  140.1293  156.0998 H       1  UNL1        0.1236
     37 C         140.5212  140.5517  155.2715 C.3     1  UNL1        0.0185
     38 C         141.6889  140.8292  156.1712 C.3     1  UNL1        0.0689
@<TRIPOS>BOND
     1    37    38    1
     2    38    35    1
     3    35    24    1
     4    24    30    1
     5    30    31   am
     6    30    32    2
     7    24    25    1
     8    25    26    1
     9    26    27    1
    10    27     1    1
    11     1     2   ar
    12     2     3   ar
    13     3     4   ar
    14     4     5   ar
    15     5     6   ar
    16     6     7   ar
    17     7     8   ar
    18     8    10    1
    19    10    11   ar
    20    11    12   ar
    21    12    13   ar
    22    13    14   ar
    23    14    15   ar
    24    15    16    1
    25     8     9   ar
    26     9    17    1
    27    17    18   ar
    28    18    19   ar
    29    19    20   ar
    30    20    21    1
    31    20    22   ar
    32    22    23   ar
    33    27    28    1
    34    28    29    1
    35    29    24    1
    36     6     1   ar
    37    15    10   ar
    38    23    17   ar
    39     9     5   ar
    40    35    36    1
    41    31    33    1
    42    31    34    1
@<TRIPOS>MOLECULE
*****
 38 42 0 0 0
SMALL
GASTEIGER

@<TRIPOS>ATOM
      1 C         142.4365  143.8424  162.1150 C.ar    1  UNL1        0.1543
      2 N         143.5040  144.8378  162.4607 N.ar    1  UNL1       -0.2073
      3 C         144.1308  144.8225  163.8234 C.ar    1  UNL1        0.2015
      4 N         143.6900  143.8117  164.8403 N.ar    1  UNL1       -0.2045
      5 C         142.6225  142.8163  164.4946 C.ar    1  UNL1        0.1711
      6 C         141.9957  142.8317  163.1319 C.ar    1  UNL1        0.1487
      7 N         140.9738  141.7348  163.0793 N.ar    1  UNL1       -0.2220
      8 C         140.9690  141.0417  164.4095 C.ar    1  UNL1        0.1497
      9 N         141.9880  141.7101  165.2842 N.ar    1  UNL1       -0.2753
     10 C         140.0982  139.8834  164.7971 C.ar    1  UNL1        0.0451
     11 C         138.8924  140.1076  165.6607 C.ar    1  UNL1        0.0038
     12 C         138.0217  138.9493  166.0482 C.ar    1  UNL1        0.0002
     13 C         138.3567  137.5669  165.5721 C.ar    1  UNL1        0.0009
     14 C         139.5624  137.3427  164.7085 C.ar    1  UNL1        0.0115
     15 C         140.4332  138.5009  164.3210 C.ar    1  UNL1        0.0606
     16 CL        141.6390  138.2768  163.4573 Cl      1  UNL1       -0.0821
     17 C         142.3150  141.3376  166.6999 C.ar    1  UNL1        0.0668
     18 C         142.3008  139.8974  167.1190 C.ar    1  UNL1        0.0185
     19 C         142.6278  139.5249  168.5347 C.ar    1  UNL1        0.0129
     20 C         142.9690  140.5927  169.5315 C.ar    1  UNL1        0.0578
     21 CL        143.2960  140.2202  170.9472 Cl      1  UNL1       -0.0822
     22 C         142.9832  142.0328  169.1124 C.ar    1  UNL1        0.0129
     23 C         142.6562  142.4053  167.6967 C.ar    1  UNL1        0.0185
     24 C         140.5561  143.8883  158.0269 C.3     1  UNL1        0.1146
     25 C         140.3331  145.0349  158.9679 C.3     1  UNL1        0.0448
     26 C         140.9599  145.0196  160.3306 C.3     1  UNL1        0.0940
     27 N         141.8097  143.8577  160.7523 N.pl3   1  UNL1       -0.2918
     28 C         142.0327  142.7111  159.8113 C.3     1  UNL1        0.0940
     29 C         141.4059  142.7263  158.4486 C.3     1  UNL1        0.0448
     30 C         140.4741  143.0433  156.7903 C.2     1  UNL1        0.2320
     31 N         139.4141  141.9886  156.6716 N.am    1  UNL1       -0.3278
     32 O         141.4520  143.2529  155.6724 O.2     1  UNL1       -0.2740
     33 H         138.7723  141.8509  157.4053 H       1  UNL1        0.1450
     34 H         139.3603  141.4339  155.8600 H       1  UNL1        0.1450
     35 N         139.6778  144.7568  157.1757 N.3     1  UNL1       -0.2926
     36 H         139.6310  144.3171  156.2565 H       1  UNL1        0.1236
     37 C         140.3507  146.6817  155.5659 C.3     1  UNL1        0.0185
     38 C         140.0382  146.1952  156.9499 C.3     1  UNL1        0.0689
@<TRIPOS>BOND
     1    37    38    1
     2    38    35    1
     3    35    24    1
     4    24    30    1
     5    30    31   am
     6    30    32    2
     7    24    25    1
     8    25    26    1
     9    26    27    1
    10    27     1    1
    11     1     2   ar
    12     2     3   ar
    13     3     4   ar
    14     4     5   ar
    15     5     6   ar
    16     6     7   ar
    17     7     8   ar
    18     8    10    1
    19    10    11   ar
    20    11    12   ar
    21    12    13   ar
    22    13    14   ar
    23    14    15   ar
    24    15    16    1
    25     8     9   ar
    26     9    17    1
    27    17    18   ar
    28    18    19   ar
    29    19    20   ar
    30    20    21    1
    31    20    22   ar
    32    22    23   ar
    33    27    28    1
    34    28    29    1
    35    29    24    1
    36     6     1   ar
    37    15    10   ar
    38    23    17   ar
    39     9     5   ar
    40    35    36    1
    41    31    33    1
    42    31    34    1
@<TRIPOS>MOLECULE
*****
 38 42 0 0 0
SMALL
GASTEIGER

@<TRIPOS>ATOM
      1 C         143.3990  143.6331  162.0487 C.ar    1  UNL1        0.1543
      2 N         144.0159  144.8999  162.5630 N.ar    1  UNL1       -0.2073
      3 C         143.9830  145.2082  164.0305 C.ar    1  UNL1        0.2015
      4 N         143.3330  144.2496  164.9838 N.ar    1  UNL1       -0.2045
      5 C         142.7160  142.9828  164.4695 C.ar    1  UNL1        0.1711
      6 C         142.7490  142.6746  163.0019 C.ar    1  UNL1        0.1487
      7 N         142.0635  141.3574  162.7894 N.ar    1  UNL1       -0.2220
      8 C         141.6069  140.8516  164.1257 C.ar    1  UNL1        0.1497
      9 N         142.0102  141.8562  165.1640 N.ar    1  UNL1       -0.2753
     10 C         140.8754  139.5667  164.3791 C.ar    1  UNL1        0.0451
     11 C         141.6084  138.2599  164.3089 C.ar    1  UNL1        0.0038
     12 C         140.8769  136.9752  164.5624 C.ar    1  UNL1        0.0002
     13 C         139.4124  136.9972  164.8861 C.ar    1  UNL1        0.0009
     14 C         138.6794  138.3040  164.9563 C.ar    1  UNL1        0.0115
     15 C         139.4109  139.5888  164.7028 C.ar    1  UNL1        0.0606
     16 CL        138.6779  140.8957  164.7730 Cl      1  UNL1       -0.0821
     17 C         141.7528  141.7523  166.6381 C.ar    1  UNL1        0.0668
     18 C         142.5301  140.7742  167.4682 C.ar    1  UNL1        0.0185
     19 C         142.2727  140.6704  168.9423 C.ar    1  UNL1        0.0129
     20 C         141.2379  141.5447  169.5864 C.ar    1  UNL1        0.0578
     21 CL        140.9805  141.4409  171.0605 Cl      1  UNL1       -0.0822
     22 C         140.4606  142.5228  168.7563 C.ar    1  UNL1        0.0129
     23 C         140.7180  142.6266  167.2822 C.ar    1  UNL1        0.0185
     24 C         143.4978  142.7083  157.6458 C.3     1  UNL1        0.1146
     25 C         144.4981  142.0761  158.5676 C.3     1  UNL1        0.0448
     26 C         144.4651  142.3844  160.0352 C.3     1  UNL1        0.0940
     27 N         143.4319  143.3248  160.5810 N.pl3   1  UNL1       -0.2918
     28 C         142.4316  143.9571  159.6592 C.3     1  UNL1        0.0940
     29 C         142.4645  143.6488  158.1916 C.3     1  UNL1        0.0448
     30 C         142.7684  143.0558  156.3820 C.2     1  UNL1        0.2320
     31 N         142.9126  144.4242  155.7849 N.am    1  UNL1       -0.3278
     32 O         141.8947  142.0349  155.7153 O.2     1  UNL1       -0.2740
     33 H         143.4860  145.0943  156.2224 H       1  UNL1        0.1450
     34 H         142.4338  144.6523  154.9554 H       1  UNL1        0.1450
     35 N         144.2777  141.8885  156.6611 N.3     1  UNL1       -0.2926
     36 H         144.1342  140.9105  156.9130 H       1  UNL1        0.1236
     37 C         146.3455  142.4636  155.1971 C.3     1  UNL1        0.0185
     38 C         145.7581  142.0878  156.5252 C.3     1  UNL1        0.0689
@<TRIPOS>BOND
     1    37    38    1
     2    38    35    1
     3    35    24    1
     4    24    30    1
     5    30    31   am
     6    30    32    2
     7    24    25    1
     8    25    26    1
     9    26    27    1
    10    27     1    1
    11     1     2   ar
    12     2     3   ar
    13     3     4   ar
    14     4     5   ar
    15     5     6   ar
    16     6     7   ar
    17     7     8   ar
    18     8    10    1
    19    10    11   ar
    20    11    12   ar
    21    12    13   ar
    22    13    14   ar
    23    14    15   ar
    24    15    16    1
    25     8     9   ar
    26     9    17    1
    27    17    18   ar
    28    18    19   ar
    29    19    20   ar
    30    20    21    1
    31    20    22   ar
    32    22    23   ar
    33    27    28    1
    34    28    29    1
    35    29    24    1
    36     6     1   ar
    37    15    10   ar
    38    23    17   ar
    39     9     5   ar
    40    35    36    1
    41    31    33    1
    42    31    34    1
