@<TRIPOS>MOLECULE
*****
 30 33 0 0 0
SMALL
GASTEIGER

@<TRIPOS>ATOM
      1 C         139.5351  139.7176  167.1280 C.ar    1  UNL1        0.0206
      2 C         138.4019  138.7579  166.9168 C.ar    1  UNL1        0.0013
      3 C         138.1035  138.2408  165.5407 C.ar    1  UNL1       -0.0045
      4 C         138.9384  138.6836  164.3758 C.ar    1  UNL1       -0.0247
      5 C         140.0715  139.6434  164.5870 C.ar    1  UNL1       -0.0246
      6 C         140.3700  140.1604  165.9631 C.ar    1  UNL1       -0.0029
      7 C         141.0203  140.2083  163.5717 C.3     1  UNL1        0.0433
      8 C         141.0700  139.9529  162.0944 C.3     1  UNL1        0.0768
      9 N         140.1835  139.0696  161.2676 N.3     1  UNL1       -0.2720
     10 C         139.0280  138.2235  161.7138 C.3     1  UNL1        0.0768
     11 C         138.4739  138.0517  163.0971 C.3     1  UNL1        0.0433
     12 C         141.7778  142.3192  171.1383 C.3     1  UNL1        0.0754
     13 C         140.8643  141.4304  170.3475 C.ar    1  UNL1        0.1548
     14 C         140.9341  141.1862  168.8691 C.ar    1  UNL1        0.0580
     15 C         139.8335  140.2346  168.5041 C.ar    1  UNL1        0.1227
     16 N         139.0835  139.8908  169.7569 N.ar    1  UNL1       -0.0774
     17 O         139.7206  140.6298  170.8961 O.2     1  UNL1       -0.3578
     18 C         140.4932  139.0268  159.8006 C.3     1  UNL1        0.0730
     19 C         139.7518  139.9206  158.8510 C.3     1  UNL1        0.0294
     20 C         139.7142  141.4011  159.0891 C.3     1  UNL1        0.0666
     21 S         138.4740  142.0411  159.6388 S.3     1  UNL1       -0.0756
     22 C         138.3107  142.2099  161.1203 C.ar    1  UNL1        0.1930
     23 N         137.3904  141.4185  162.0017 N.ar    1  UNL1       -0.1224
     24 N         137.5498  141.9192  163.4066 N.ar    1  UNL1       -0.1328
     25 C         138.5687  143.0201  163.3935 C.ar    1  UNL1        0.1432
     26 N         139.0389  143.1997  161.9804 N.ar    1  UNL1       -0.2918
     27 C         140.0583  144.1945  161.5102 C.3     1  UNL1        0.1337
     28 C         139.0353  143.8037  164.5843 C.3     1  UNL1        0.0588
     29 C         140.4365  143.6335  165.0920 C.3     1  UNL1        0.0080
     30 C         138.1009  144.7577  165.2676 C.3     1  UNL1        0.0080
@<TRIPOS>BOND
     1    12    13    1
     2    13    14   ar
     3    14    15   ar
     4    15     1    1
     5     1     2   ar
     6     2     3   ar
     7     3     4   ar
     8     4     5   ar
     9     5     6   ar
    10     5     7    1
    11     7     8    1
    12     8     9    1
    13     9    18    1
    14    18    19    1
    15    19    20    1
    16    20    21    1
    17    21    22    1
    18    22    23   ar
    19    23    24   ar
    20    24    25   ar
    21    25    28    1
    22    28    29    1
    23    28    30    1
    24    25    26   ar
    25    26    27    1
    26     9    10    1
    27    10    11    1
    28    15    16   ar
    29    16    17   ar
    30    17    13   ar
    31     6     1   ar
    32    26    22   ar
    33    11     4    1
@<TRIPOS>MOLECULE
*****
 30 33 0 0 0
SMALL
GASTEIGER

@<TRIPOS>ATOM
      1 C         139.0655  139.7245  166.5367 C.ar    1  UNL1        0.0206
      2 C         138.9341  138.3045  166.0716 C.ar    1  UNL1        0.0013
      3 C         138.7866  138.0050  164.6092 C.ar    1  UNL1       -0.0045
      4 C         138.7705  139.1255  163.6120 C.ar    1  UNL1       -0.0247
      5 C         138.9019  140.5453  164.0772 C.ar    1  UNL1       -0.0246
      6 C         139.0495  140.8450  165.5395 C.ar    1  UNL1       -0.0029
      7 C         138.9100  141.8013  163.2570 C.3     1  UNL1        0.0433
      8 C         138.7887  141.9474  161.7690 C.3     1  UNL1        0.0768
      9 N         138.6293  140.8737  160.7339 N.3     1  UNL1       -0.2720
     10 C         138.5519  139.3887  160.9308 C.3     1  UNL1        0.0768
     11 C         138.6147  138.6106  162.2117 C.3     1  UNL1        0.0433
     12 C         140.8663  141.6495  171.1119 C.3     1  UNL1        0.0754
     13 C         140.0408  140.9088  170.1021 C.ar    1  UNL1        0.1548
     14 C         140.2719  140.8861  168.6201 C.ar    1  UNL1        0.0580
     15 C         139.2131  140.0240  167.9991 C.ar    1  UNL1        0.1227
     16 N         138.3276  139.5140  169.0972 N.ar    1  UNL1       -0.0774
     17 O         138.8391  140.0608  170.3968 O.2     1  UNL1       -0.3578
     18 C         138.5349  141.3476  159.3138 C.3     1  UNL1        0.0730
     19 C         138.5805  142.8155  159.0084 C.3     1  UNL1        0.0294
     20 C         139.6619  143.3647  158.1257 C.3     1  UNL1        0.0666
     21 S         140.4646  144.5505  158.5723 S.3     1  UNL1       -0.0756
     22 C         140.5960  144.8596  160.0343 C.ar    1  UNL1        0.1930
     23 N         139.7150  145.7827  160.8228 N.ar    1  UNL1       -0.1224
     24 N         140.2059  145.7936  162.2402 N.ar    1  UNL1       -0.1328
     25 C         141.3902  144.8773  162.3276 C.ar    1  UNL1        0.1432
     26 N         141.6313  144.3000  160.9642 N.ar    1  UNL1       -0.2918
     27 C         142.7171  143.3330  160.5956 C.3     1  UNL1        0.1337
     28 C         142.1926  144.5888  163.5616 C.3     1  UNL1        0.0588
     29 C         143.5647  145.1743  163.7180 C.3     1  UNL1        0.0080
     30 C         141.6229  143.7148  164.6394 C.3     1  UNL1        0.0080
@<TRIPOS>BOND
     1    12    13    1
     2    13    14   ar
     3    14    15   ar
     4    15     1    1
     5     1     2   ar
     6     2     3   ar
     7     3     4   ar
     8     4     5   ar
     9     5     6   ar
    10     5     7    1
    11     7     8    1
    12     8     9    1
    13     9    18    1
    14    18    19    1
    15    19    20    1
    16    20    21    1
    17    21    22    1
    18    22    23   ar
    19    23    24   ar
    20    24    25   ar
    21    25    28    1
    22    28    29    1
    23    28    30    1
    24    25    26   ar
    25    26    27    1
    26     9    10    1
    27    10    11    1
    28    15    16   ar
    29    16    17   ar
    30    17    13   ar
    31     6     1   ar
    32    26    22   ar
    33    11     4    1
@<TRIPOS>MOLECULE
*****
 30 33 0 0 0
SMALL
GASTEIGER

@<TRIPOS>ATOM
      1 C         138.5786  139.4754  164.6176 C.ar    1  UNL1        0.0206
      2 C         138.7658  138.2116  163.8316 C.ar    1  UNL1        0.0013
      3 C         138.8442  138.2641  162.3345 C.ar    1  UNL1       -0.0045
      4 C         138.7354  139.5805  161.6235 C.ar    1  UNL1       -0.0247
      5 C         138.5483  140.8442  162.4096 C.ar    1  UNL1       -0.0246
      6 C         138.4699  140.7917  163.9066 C.ar    1  UNL1       -0.0029
      7 C         138.4179  142.2501  161.9030 C.3     1  UNL1        0.0433
      8 C         138.4425  142.7393  160.4851 C.3     1  UNL1        0.0768
      9 N         138.6035  141.9436  159.2240 N.3     1  UNL1       -0.2720
     10 C         138.7797  140.4621  159.0688 C.3     1  UNL1        0.0768
     11 C         138.8384  139.4104  160.1367 C.3     1  UNL1        0.0433
     12 C         139.5789  140.3273  169.7317 C.3     1  UNL1        0.0754
     13 C         138.9600  139.8144  168.4653 C.ar    1  UNL1        0.1548
     14 C         139.3934  140.1565  167.0706 C.ar    1  UNL1        0.0580
     15 C         138.5003  139.4228  166.1146 C.ar    1  UNL1        0.1227
     16 N         137.5149  138.6272  166.9184 N.ar    1  UNL1       -0.0774
     17 O         137.7991  138.8692  168.3712 O.2     1  UNL1       -0.3578
     18 C         138.5860  142.7339  157.9491 C.3     1  UNL1        0.0730
     19 C         139.8757  143.1673  157.3175 C.3     1  UNL1        0.0294
     20 C         140.2144  144.6259  157.2286 C.3     1  UNL1        0.0666
     21 S         140.3739  145.4365  158.4805 S.3     1  UNL1       -0.0756
     22 C         141.2388  144.9302  159.5967 C.ar    1  UNL1        0.1930
     23 N         142.4726  144.0908  159.4448 N.ar    1  UNL1       -0.1224
     24 N         143.0180  143.8162  160.8148 N.ar    1  UNL1       -0.1328
     25 C         142.1212  144.4859  161.8135 C.ar    1  UNL1        0.1432
     26 N         141.0216  145.1744  161.0606 N.ar    1  UNL1       -0.2918
     27 C         139.9015  145.9678  161.6655 C.3     1  UNL1        0.1337
     28 C         142.2938  144.4699  163.3034 C.3     1  UNL1        0.0588
     29 C         141.3072  143.7389  164.1649 C.3     1  UNL1        0.0080
     30 C         143.4529  145.1850  163.9320 C.3     1  UNL1        0.0080
@<TRIPOS>BOND
     1    12    13    1
     2    13    14   ar
     3    14    15   ar
     4    15     1    1
     5     1     2   ar
     6     2     3   ar
     7     3     4   ar
     8     4     5   ar
     9     5     6   ar
    10     5     7    1
    11     7     8    1
    12     8     9    1
    13     9    18    1
    14    18    19    1
    15    19    20    1
    16    20    21    1
    17    21    22    1
    18    22    23   ar
    19    23    24   ar
    20    24    25   ar
    21    25    28    1
    22    28    29    1
    23    28    30    1
    24    25    26   ar
    25    26    27    1
    26     9    10    1
    27    10    11    1
    28    15    16   ar
    29    16    17   ar
    30    17    13   ar
    31     6     1   ar
    32    26    22   ar
    33    11     4    1
@<TRIPOS>MOLECULE
*****
 30 33 0 0 0
SMALL
GASTEIGER

@<TRIPOS>ATOM
      1 C         139.7928  140.9561  166.8409 C.ar    1  UNL1        0.0206
      2 C         138.6924  140.3069  166.0549 C.ar    1  UNL1        0.0013
      3 C         138.2531  140.8999  164.7489 C.ar    1  UNL1       -0.0045
      4 C         138.9142  142.1420  164.2291 C.ar    1  UNL1       -0.0247
      5 C         140.0145  142.7910  165.0151 C.ar    1  UNL1       -0.0246
      6 C         140.4538  142.1981  166.3210 C.ar    1  UNL1       -0.0029
      7 C         140.8008  144.0241  164.6810 C.3     1  UNL1        0.0433
      8 C         140.6807  144.9125  163.4783 C.3     1  UNL1        0.0768
      9 N         139.7449  144.7873  162.3129 N.3     1  UNL1       -0.2720
     10 C         138.6979  143.7428  162.0620 C.3     1  UNL1        0.0768
     11 C         138.3282  142.5655  162.9148 C.3     1  UNL1        0.0433
     12 C         142.8129  138.9957  170.7031 C.3     1  UNL1        0.0754
     13 C         141.6202  139.4620  169.9221 C.ar    1  UNL1        0.1548
     14 C         141.6428  140.0331  168.5352 C.ar    1  UNL1        0.0580
     15 C         140.2320  140.3631  168.1468 C.ar    1  UNL1        0.1227
     16 N         139.3376  139.9960  169.2937 N.ar    1  UNL1       -0.0774
     17 O         140.1955  139.4391  170.3908 O.2     1  UNL1       -0.3578
     18 C         139.8729  145.8468  161.2587 C.3     1  UNL1        0.0730
     19 C         140.2332  145.4666  159.8531 C.3     1  UNL1        0.0294
     20 C         141.5846  144.8876  159.5556 C.3     1  UNL1        0.0666
     21 S         141.8925  143.4691  159.9337 S.3     1  UNL1       -0.0756
     22 C         142.7740  143.1817  161.1128 C.ar    1  UNL1        0.1930
     23 N         143.9159  144.0306  161.5876 N.ar    1  UNL1       -0.1224
     24 N         144.5161  143.3686  162.7924 N.ar    1  UNL1       -0.1328
     25 C         143.7451  142.1104  163.0621 C.ar    1  UNL1        0.1432
     26 N         142.6684  141.9949  162.0241 N.ar    1  UNL1       -0.2918
     27 C         141.6628  140.8872  161.9163 C.3     1  UNL1        0.1337
     28 C         144.0051  141.1384  164.1746 C.3     1  UNL1        0.0588
     29 C         144.6389  139.8116  163.8784 C.3     1  UNL1        0.0080
     30 C         143.6313  141.4932  165.5833 C.3     1  UNL1        0.0080
@<TRIPOS>BOND
     1    12    13    1
     2    13    14   ar
     3    14    15   ar
     4    15     1    1
     5     1     2   ar
     6     2     3   ar
     7     3     4   ar
     8     4     5   ar
     9     5     6   ar
    10     5     7    1
    11     7     8    1
    12     8     9    1
    13     9    18    1
    14    18    19    1
    15    19    20    1
    16    20    21    1
    17    21    22    1
    18    22    23   ar
    19    23    24   ar
    20    24    25   ar
    21    25    28    1
    22    28    29    1
    23    28    30    1
    24    25    26   ar
    25    26    27    1
    26     9    10    1
    27    10    11    1
    28    15    16   ar
    29    16    17   ar
    30    17    13   ar
    31     6     1   ar
    32    26    22   ar
    33    11     4    1
@<TRIPOS>MOLECULE
*****
 30 33 0 0 0
SMALL
GASTEIGER

@<TRIPOS>ATOM
      1 C         139.7451  139.5661  166.9546 C.ar    1  UNL1        0.0206
      2 C         138.4686  139.2215  166.2460 C.ar    1  UNL1        0.0013
      3 C         138.5050  138.7467  164.8236 C.ar    1  UNL1       -0.0045
      4 C         139.8179  138.6163  164.1098 C.ar    1  UNL1       -0.0247
      5 C         141.0942  138.9608  164.8183 C.ar    1  UNL1       -0.0246
      6 C         141.0579  139.4357  166.2407 C.ar    1  UNL1       -0.0029
      7 C         142.4991  138.9025  164.2959 C.3     1  UNL1        0.0433
      8 C         142.9745  138.4851  162.9357 C.3     1  UNL1        0.0768
      9 N         142.1625  138.0231  161.7623 N.3     1  UNL1       -0.2720
     10 C         140.6745  137.8643  161.6590 C.3     1  UNL1        0.0768
     11 C         139.6310  138.1283  162.7037 C.3     1  UNL1        0.0433
     12 C         141.0422  141.9293  171.4947 C.3     1  UNL1        0.0754
     13 C         140.3048  141.1272  170.4638 C.ar    1  UNL1        0.1548
     14 C         140.7428  140.8954  169.0480 C.ar    1  UNL1        0.0580
     15 C         139.7086  140.0409  168.3769 C.ar    1  UNL1        0.1227
     16 N         138.6315  139.7447  169.3780 N.ar    1  UNL1       -0.0774
     17 O         139.0000  140.4160  170.6677 O.2     1  UNL1       -0.3578
     18 C         142.9415  137.6737  160.5290 C.3     1  UNL1        0.0730
     19 C         143.0166  138.6456  159.3888 C.3     1  UNL1        0.0294
     20 C         143.4430  140.0620  159.6375 C.3     1  UNL1        0.0666
     21 S         142.4122  141.1230  159.8855 S.3     1  UNL1       -0.0756
     22 C         142.1554  141.6074  161.2818 C.ar    1  UNL1        0.1930
     23 N         143.1970  142.0423  162.2697 N.ar    1  UNL1       -0.1224
     24 N         142.4972  142.4456  163.5337 N.ar    1  UNL1       -0.1328
     25 C         141.0232  142.2599  163.3270 C.ar    1  UNL1        0.1432
     26 N         140.8119  141.7419  161.9352 N.ar    1  UNL1       -0.2918
     27 C         139.4893  141.4157  161.3071 C.3     1  UNL1        0.1337
     28 C         139.9490  142.5427  164.3350 C.3     1  UNL1        0.0588
     29 C         140.3137  143.0637  165.6935 C.3     1  UNL1        0.0080
     30 C         138.5101  142.3044  163.9847 C.3     1  UNL1        0.0080
@<TRIPOS>BOND
     1    12    13    1
     2    13    14   ar
     3    14    15   ar
     4    15     1    1
     5     1     2   ar
     6     2     3   ar
     7     3     4   ar
     8     4     5   ar
     9     5     6   ar
    10     5     7    1
    11     7     8    1
    12     8     9    1
    13     9    18    1
    14    18    19    1
    15    19    20    1
    16    20    21    1
    17    21    22    1
    18    22    23   ar
    19    23    24   ar
    20    24    25   ar
    21    25    28    1
    22    28    29    1
    23    28    30    1
    24    25    26   ar
    25    26    27    1
    26     9    10    1
    27    10    11    1
    28    15    16   ar
    29    16    17   ar
    30    17    13   ar
    31     6     1   ar
    32    26    22   ar
    33    11     4    1
@<TRIPOS>MOLECULE
*****
 30 33 0 0 0
SMALL
GASTEIGER

@<TRIPOS>ATOM
      1 C         141.6780  140.2843  167.2964 C.ar    1  UNL1        0.0206
      2 C         142.7379  139.2252  167.3655 C.ar    1  UNL1        0.0013
      3 C         143.4898  138.8347  166.1276 C.ar    1  UNL1       -0.0045
      4 C         143.1817  139.5034  164.8207 C.ar    1  UNL1       -0.0247
      5 C         142.1219  140.5625  164.7517 C.ar    1  UNL1       -0.0246
      6 C         141.3700  140.9530  165.9895 C.ar    1  UNL1       -0.0029
      7 C         141.6613  141.3485  163.5599 C.3     1  UNL1        0.0433
      8 C         142.1471  141.2694  162.1429 C.3     1  UNL1        0.0768
      9 N         143.2131  140.3849  161.5678 N.3     1  UNL1       -0.2720
     10 C         144.0570  139.3609  162.2674 C.3     1  UNL1        0.0768
     11 C         144.0430  138.9686  163.7151 C.3     1  UNL1        0.0433
     12 C         139.4174  143.1660  171.0997 C.3     1  UNL1        0.0754
     13 C         139.8870  141.9993  170.2825 C.ar    1  UNL1        0.1548
     14 C         140.6750  142.0755  169.0083 C.ar    1  UNL1        0.0580
     15 C         140.9262  140.6747  168.5342 C.ar    1  UNL1        0.1227
     16 N         140.2934  139.7328  169.5154 N.ar    1  UNL1       -0.0774
     17 O         139.6513  140.5515  170.5958 O.2     1  UNL1       -0.3578
     18 C         143.4694  140.5456  160.0986 C.3     1  UNL1        0.0730
     19 C         142.4315  140.1154  159.1047 C.3     1  UNL1        0.0294
     20 C         141.7653  138.7790  159.2467 C.3     1  UNL1        0.0666
     21 S         140.4076  138.6810  159.8767 S.3     1  UNL1       -0.0756
     22 C         140.2780  138.3236  161.3277 C.ar    1  UNL1        0.1930
     23 N         141.1436  137.3551  162.0779 N.ar    1  UNL1       -0.1224
     24 N         140.6607  137.3049  163.4971 N.ar    1  UNL1       -0.1328
     25 C         139.4966  138.2424  163.6241 C.ar    1  UNL1        0.1432
     26 N         139.2601  138.8720  162.2833 N.ar    1  UNL1       -0.2918
     27 C         138.1930  139.8740  161.9557 C.3     1  UNL1        0.1337
     28 C         138.7076  138.5043  164.8726 C.3     1  UNL1        0.0588
     29 C         138.4238  137.3844  165.8293 C.3     1  UNL1        0.0080
     30 C         138.2023  139.8861  165.1645 C.3     1  UNL1        0.0080
@<TRIPOS>BOND
     1    12    13    1
     2    13    14   ar
     3    14    15   ar
     4    15     1    1
     5     1     2   ar
     6     2     3   ar
     7     3     4   ar
     8     4     5   ar
     9     5     6   ar
    10     5     7    1
    11     7     8    1
    12     8     9    1
    13     9    18    1
    14    18    19    1
    15    19    20    1
    16    20    21    1
    17    21    22    1
    18    22    23   ar
    19    23    24   ar
    20    24    25   ar
    21    25    28    1
    22    28    29    1
    23    28    30    1
    24    25    26   ar
    25    26    27    1
    26     9    10    1
    27    10    11    1
    28    15    16   ar
    29    16    17   ar
    30    17    13   ar
    31     6     1   ar
    32    26    22   ar
    33    11     4    1
@<TRIPOS>MOLECULE
*****
 30 33 0 0 0
SMALL
GASTEIGER

@<TRIPOS>ATOM
      1 C         142.5281  140.1323  166.3800 C.ar    1  UNL1        0.0206
      2 C         142.8099  138.7049  166.0151 C.ar    1  UNL1        0.0013
      3 C         142.6370  138.2450  164.5978 C.ar    1  UNL1       -0.0045
      4 C         142.1824  139.2125  163.5455 C.ar    1  UNL1       -0.0247
      5 C         141.9007  140.6398  163.9105 C.ar    1  UNL1       -0.0246
      6 C         142.0735  141.0997  165.3277 C.ar    1  UNL1       -0.0029
      7 C         141.4417  141.7589  163.0233 C.3     1  UNL1        0.0433
      8 C         141.1513  141.7269  161.5519 C.3     1  UNL1        0.0768
      9 N         141.2480  140.5681  160.6046 N.3     1  UNL1       -0.2720
     10 C         141.6590  139.1549  160.8944 C.3     1  UNL1        0.0768
     11 C         142.0749  138.5516  162.2032 C.3     1  UNL1        0.0433
     12 C         143.0769  143.2244  170.6248 C.3     1  UNL1        0.0754
     13 C         142.9532  142.0134  169.7484 C.ar    1  UNL1        0.1548
     14 C         142.7803  142.0173  168.2583 C.ar    1  UNL1        0.0580
     15 C         142.7010  140.5921  167.7973 C.ar    1  UNL1        0.1227
     16 N         142.8248  139.7075  169.0023 N.ar    1  UNL1       -0.0774
     17 O         142.9807  140.5859  170.2081 O.2     1  UNL1       -0.3578
     18 C         140.8857  140.8611  159.1788 C.3     1  UNL1        0.0730
     19 C         139.5529  140.4326  158.6402 C.3     1  UNL1        0.0294
     20 C         138.2904  140.9352  159.2755 C.3     1  UNL1        0.0666
     21 S         137.5358  140.0645  160.2358 S.3     1  UNL1       -0.0756
     22 C         137.7253  140.2381  161.7136 C.ar    1  UNL1        0.1930
     23 N         137.4568  141.4895  162.4959 N.ar    1  UNL1       -0.1224
     24 N         137.7821  141.2157  163.9344 N.ar    1  UNL1       -0.1328
     25 C         138.2516  139.7951  164.0411 C.ar    1  UNL1        0.1432
     26 N         138.2165  139.1909  162.6686 N.ar    1  UNL1       -0.2918
     27 C         138.6045  137.7861  162.3135 C.3     1  UNL1        0.1337
     28 C         138.6809  139.1006  165.2994 C.3     1  UNL1        0.0588
     29 C         138.8397  137.6091  165.3161 C.3     1  UNL1        0.0080
     30 C         138.9514  139.8975  166.5411 C.3     1  UNL1        0.0080
@<TRIPOS>BOND
     1    12    13    1
     2    13    14   ar
     3    14    15   ar
     4    15     1    1
     5     1     2   ar
     6     2     3   ar
     7     3     4   ar
     8     4     5   ar
     9     5     6   ar
    10     5     7    1
    11     7     8    1
    12     8     9    1
    13     9    18    1
    14    18    19    1
    15    19    20    1
    16    20    21    1
    17    21    22    1
    18    22    23   ar
    19    23    24   ar
    20    24    25   ar
    21    25    28    1
    22    28    29    1
    23    28    30    1
    24    25    26   ar
    25    26    27    1
    26     9    10    1
    27    10    11    1
    28    15    16   ar
    29    16    17   ar
    30    17    13   ar
    31     6     1   ar
    32    26    22   ar
    33    11     4    1
@<TRIPOS>MOLECULE
*****
 30 33 0 0 0
SMALL
GASTEIGER

@<TRIPOS>ATOM
      1 C         139.5817  139.8735  166.5966 C.ar    1  UNL1        0.0206
      2 C         138.6187  138.9326  165.9353 C.ar    1  UNL1        0.0013
      3 C         138.6280  138.7760  164.4435 C.ar    1  UNL1       -0.0045
      4 C         139.6003  139.5603  163.6131 C.ar    1  UNL1       -0.0247
      5 C         140.5632  140.5012  164.2744 C.ar    1  UNL1       -0.0246
      6 C         140.5540  140.6578  165.7662 C.ar    1  UNL1       -0.0029
      7 C         141.6067  141.3712  163.6386 C.3     1  UNL1        0.0433
      8 C         141.9449  141.5151  162.1842 C.3     1  UNL1        0.0768
      9 N         141.3232  140.8246  161.0068 N.3     1  UNL1       -0.2720
     10 C         140.2097  139.8197  160.9926 C.3     1  UNL1        0.0768
     11 C         139.4429  139.2570  162.1525 C.3     1  UNL1        0.0433
     12 C         141.0025  141.1384  171.5223 C.3     1  UNL1        0.0754
     13 C         140.2254  140.6115  170.3525 C.ar    1  UNL1        0.1548
     14 C         140.6469  140.6731  168.9142 C.ar    1  UNL1        0.0580
     15 C         139.5724  140.0301  168.0884 C.ar    1  UNL1        0.1227
     16 N         138.4868  139.5712  169.0163 N.ar    1  UNL1       -0.0774
     17 O         138.8904  139.9305  170.4155 O.2     1  UNL1       -0.3578
     18 C         141.8899  141.1870  159.6660 C.3     1  UNL1        0.0730
     19 C         142.3588  142.5875  159.4036 C.3     1  UNL1        0.0294
     20 C         141.4493  143.5682  158.7244 C.3     1  UNL1        0.0666
     21 S         140.1193  143.9025  159.3319 S.3     1  UNL1       -0.0756
     22 C         140.0231  144.2311  160.7923 C.ar    1  UNL1        0.1930
     23 N         140.8950  145.1975  161.5379 N.ar    1  UNL1       -0.1224
     24 N         140.4489  145.2148  162.9699 N.ar    1  UNL1       -0.1328
     25 C         139.3012  144.2591  163.1093 C.ar    1  UNL1        0.1432
     26 N         139.0380  143.6511  161.7635 N.ar    1  UNL1       -0.2918
     27 C         137.9762  142.6407  161.4449 C.3     1  UNL1        0.1337
     28 C         138.5488  143.9632  164.3728 C.3     1  UNL1        0.0588
     29 C         137.7403  142.7049  164.4871 C.3     1  UNL1        0.0080
     30 C         138.6048  144.9256  165.5220 C.3     1  UNL1        0.0080
@<TRIPOS>BOND
     1    12    13    1
     2    13    14   ar
     3    14    15   ar
     4    15     1    1
     5     1     2   ar
     6     2     3   ar
     7     3     4   ar
     8     4     5   ar
     9     5     6   ar
    10     5     7    1
    11     7     8    1
    12     8     9    1
    13     9    18    1
    14    18    19    1
    15    19    20    1
    16    20    21    1
    17    21    22    1
    18    22    23   ar
    19    23    24   ar
    20    24    25   ar
    21    25    28    1
    22    28    29    1
    23    28    30    1
    24    25    26   ar
    25    26    27    1
    26     9    10    1
    27    10    11    1
    28    15    16   ar
    29    16    17   ar
    30    17    13   ar
    31     6     1   ar
    32    26    22   ar
    33    11     4    1
@<TRIPOS>MOLECULE
*****
 30 33 0 0 0
SMALL
GASTEIGER

@<TRIPOS>ATOM
      1 C         141.4359  142.5390  166.6791 C.ar    1  UNL1        0.0206
      2 C         140.0975  143.1914  166.8607 C.ar    1  UNL1        0.0013
      3 C         139.4812  143.9653  165.7331 C.ar    1  UNL1       -0.0045
      4 C         140.2034  144.0869  164.4240 C.ar    1  UNL1       -0.0247
      5 C         141.5418  143.4345  164.2425 C.ar    1  UNL1       -0.0246
      6 C         142.1581  142.6606  165.3700 C.ar    1  UNL1       -0.0029
      7 C         142.4242  143.4319  163.0294 C.3     1  UNL1        0.0433
      8 C         142.1859  144.0812  161.6983 C.3     1  UNL1        0.0768
      9 N         141.0066  144.8932  161.2516 N.3     1  UNL1       -0.2720
     10 C         139.7741  145.2567  162.0255 C.3     1  UNL1        0.0768
     11 C         139.4167  144.8978  163.4374 C.3     1  UNL1        0.0433
     12 C         142.6340  138.6333  170.0243 C.3     1  UNL1        0.0754
     13 C         142.6029  139.9699  169.3443 C.ar    1  UNL1        0.1548
     14 C         141.7710  140.3323  168.1498 C.ar    1  UNL1        0.0580
     15 C         142.0522  141.7652  167.8066 C.ar    1  UNL1        0.1227
     16 N         143.0578  142.2883  168.7890 N.ar    1  UNL1       -0.0774
     17 O         143.3981  141.1788  169.7392 O.2     1  UNL1       -0.3578
     18 C         141.0677  145.4102  159.8448 C.3     1  UNL1        0.0730
     19 C         140.4300  144.6328  158.7316 C.3     1  UNL1        0.0294
     20 C         140.4194  143.1334  158.7740 C.3     1  UNL1        0.0666
     21 S         139.1250  142.3975  158.9551 S.3     1  UNL1       -0.0756
     22 C         138.6676  142.0117  160.3305 C.ar    1  UNL1        0.1930
     23 N         137.6148  142.7113  161.1381 N.ar    1  UNL1       -0.1224
     24 N         137.4792  141.9906  162.4467 N.ar    1  UNL1       -0.1328
     25 C         138.4482  140.8456  162.4477 C.ar    1  UNL1        0.1432
     26 N         139.1827  140.8586  161.1399 N.ar    1  UNL1       -0.2918
     27 C         140.2456  139.8888  160.7160 C.3     1  UNL1        0.1337
     28 C         138.6477  139.8605  163.5612 C.3     1  UNL1        0.0588
     29 C         138.8412  140.3466  164.9670 C.3     1  UNL1        0.0080
     30 C         138.6536  138.3893  163.2689 C.3     1  UNL1        0.0080
@<TRIPOS>BOND
     1    12    13    1
     2    13    14   ar
     3    14    15   ar
     4    15     1    1
     5     1     2   ar
     6     2     3   ar
     7     3     4   ar
     8     4     5   ar
     9     5     6   ar
    10     5     7    1
    11     7     8    1
    12     8     9    1
    13     9    18    1
    14    18    19    1
    15    19    20    1
    16    20    21    1
    17    21    22    1
    18    22    23   ar
    19    23    24   ar
    20    24    25   ar
    21    25    28    1
    22    28    29    1
    23    28    30    1
    24    25    26   ar
    25    26    27    1
    26     9    10    1
    27    10    11    1
    28    15    16   ar
    29    16    17   ar
    30    17    13   ar
    31     6     1   ar
    32    26    22   ar
    33    11     4    1
