@<TRIPOS>MOLECULE
*****
 34 36 0 0 0
SMALL
GASTEIGER

@<TRIPOS>ATOM
      1 C         143.4966  142.0919  164.3902 C.3     1  UNL1        0.0690
      2 C         144.6655  141.1550  164.4667 C.3     1  UNL1        0.0485
      3 C         145.6609  141.1046  163.3457 C.3     1  UNL1        0.1436
      4 O         145.4873  141.9909  162.1481 O.3     1  UNL1       -0.3537
      5 C         144.3184  142.9278  162.0716 C.3     1  UNL1        0.1436
      6 C         143.3230  142.9782  163.1926 C.3     1  UNL1        0.0485
      7 N         142.7039  140.1780  168.3850 N.3     1  UNL1       -0.2682
      8 C         142.8192  139.3269  167.1553 C.3     1  UNL1        0.0897
      9 C         143.0835  139.9648  165.8237 C.3     1  UNL1        0.0896
     10 N         143.2324  141.4539  165.7218 N.3     1  UNL1       -0.2710
     11 C         143.1171  142.3050  166.9515 C.3     1  UNL1        0.0896
     12 C         142.8528  141.6670  168.2831 C.3     1  UNL1        0.0897
     13 C         142.4397  139.5400  169.7166 C.3     1  UNL1        0.1046
     14 C         142.5734  140.3463  170.9743 C.3     1  UNL1        0.1594
     15 O         141.3484  140.8730  171.6613 O.3     1  UNL1       -0.3523
     16 C         140.5964  142.0293  171.0716 C.3     1  UNL1        0.1422
     17 C         138.9193  140.4333  169.8926 C.3     1  UNL1        0.0027
     18 C         139.5504  141.7878  170.0241 C.3     1  UNL1        0.0321
     19 C         142.2359  142.8072  164.7761 C.3     1  UNL1        0.1143
     20 N         140.9510  142.4981  164.0665 N.am    1  UNL1       -0.2425
     21 C         140.1302  143.6098  163.4831 C.2     1  UNL1        0.2304
     22 O         140.5943  145.0306  163.6094 O.2     1  UNL1       -0.2745
     23 C         140.4869  141.0773  163.9403 C.ar    1  UNL1        0.1373
     24 C         140.8773  140.2645  162.7415 C.ar    1  UNL1        0.0347
     25 C         140.4132  138.8437  162.6153 C.ar    1  UNL1        0.0044
     26 C         139.5588  138.2357  163.6878 C.ar    1  UNL1        0.0232
     27 C         139.1684  139.0485  164.8865 C.ar    1  UNL1        0.1540
     28 N         139.6324  140.4693  165.0127 N.ar    1  UNL1       -0.2263
     29 C         138.3139  138.4405  165.9590 C.3     1  UNL1        0.4349
     30 F         137.4594  137.8323  167.0314 F       1  UNL1       -0.1644
     31 F         138.0804  139.8014  166.5447 F       1  UNL1       -0.1644
     32 F         138.5474  137.0794  165.3732 F       1  UNL1       -0.1644
     33 C         138.8453  143.3009  162.7735 C.3     1  UNL1        0.0857
     34 C         137.5335  143.5269  163.4649 C.3     1  UNL1        0.0101
@<TRIPOS>BOND
     1    17    18    1
     2    18    16    1
     3    16    15    1
     4    15    14    1
     5    14    13    1
     6    13     7    1
     7     7     8    1
     8     8     9    1
     9     9    10    1
    10    10     1    1
    11     1    19    1
    12    19    20    1
    13    20    21   am
    14    21    22    2
    15    21    33    1
    16    33    34    1
    17    20    23    1
    18    23    24   ar
    19    24    25   ar
    20    25    26   ar
    21    26    27   ar
    22    27    29    1
    23    29    30    1
    24    29    31    1
    25    29    32    1
    26    27    28   ar
    27     1     2    1
    28     2     3    1
    29     3     4    1
    30     4     5    1
    31     5     6    1
    32    10    11    1
    33    11    12    1
    34    12     7    1
    35     6     1    1
    36    28    23   ar
@<TRIPOS>MOLECULE
*****
 34 36 0 0 0
SMALL
GASTEIGER

@<TRIPOS>ATOM
      1 C         142.1956  139.1053  164.5324 C.3     1  UNL1        0.0690
      2 C         141.1805  138.0112  164.6821 C.3     1  UNL1        0.0485
      3 C         140.9363  137.0551  163.5523 C.3     1  UNL1        0.1436
      4 O         141.7071  137.1932  162.2730 O.3     1  UNL1       -0.3537
      5 C         142.7222  138.2873  162.1234 C.3     1  UNL1        0.1436
      6 C         142.9664  139.2434  163.2531 C.3     1  UNL1        0.0485
      7 N         140.7685  139.9305  168.7196 N.3     1  UNL1       -0.2682
      8 C         142.2260  139.6927  168.4572 C.3     1  UNL1        0.0897
      9 C         142.7017  139.4176  167.0615 C.3     1  UNL1        0.0896
     10 N         141.7199  139.3804  165.9282 N.3     1  UNL1       -0.2710
     11 C         140.2623  139.6183  166.1905 C.3     1  UNL1        0.0896
     12 C         139.7866  139.8933  167.5863 C.3     1  UNL1        0.0897
     13 C         140.2927  140.2056  170.1153 C.3     1  UNL1        0.1046
     14 C         141.2690  140.6376  171.1690 C.3     1  UNL1        0.1594
     15 O         141.4309  142.0940  171.4895 O.3     1  UNL1       -0.3523
     16 C         141.7021  143.0782  170.3905 C.3     1  UNL1        0.1422
     17 C         140.2293  143.4269  168.2788 C.3     1  UNL1        0.0027
     18 C         140.5611  143.7664  169.7017 C.3     1  UNL1        0.0321
     19 C         143.0454  140.2951  164.8676 C.3     1  UNL1        0.1143
     20 N         142.8686  141.5795  164.1131 N.am    1  UNL1       -0.2425
     21 C         144.0627  142.4232  163.7785 C.2     1  UNL1        0.2304
     22 O         145.4338  141.9826  164.1982 O.2     1  UNL1       -0.2745
     23 C         141.4976  142.0201  163.6934 C.ar    1  UNL1        0.1373
     24 C         140.9228  141.5449  162.3919 C.ar    1  UNL1        0.0347
     25 C         139.5518  141.9856  161.9721 C.ar    1  UNL1        0.0044
     26 C         138.7556  142.9012  162.8539 C.ar    1  UNL1        0.0232
     27 C         139.3304  143.3763  164.1554 C.ar    1  UNL1        0.1540
     28 N         140.7014  142.9357  164.5751 N.ar    1  UNL1       -0.2263
     29 C         138.5340  144.2920  165.0371 C.3     1  UNL1        0.4349
     30 F         137.7378  145.2078  165.9188 F       1  UNL1       -0.1644
     31 F         137.3408  143.3949  164.8913 F       1  UNL1       -0.1644
     32 F         139.7273  145.1892  165.1830 F       1  UNL1       -0.1644
     33 C         143.8860  143.7075  163.0241 C.3     1  UNL1        0.0857
     34 C         143.6604  144.9899  163.7687 C.3     1  UNL1        0.0101
@<TRIPOS>BOND
     1    17    18    1
     2    18    16    1
     3    16    15    1
     4    15    14    1
     5    14    13    1
     6    13     7    1
     7     7     8    1
     8     8     9    1
     9     9    10    1
    10    10     1    1
    11     1    19    1
    12    19    20    1
    13    20    21   am
    14    21    22    2
    15    21    33    1
    16    33    34    1
    17    20    23    1
    18    23    24   ar
    19    24    25   ar
    20    25    26   ar
    21    26    27   ar
    22    27    29    1
    23    29    30    1
    24    29    31    1
    25    29    32    1
    26    27    28   ar
    27     1     2    1
    28     2     3    1
    29     3     4    1
    30     4     5    1
    31     5     6    1
    32    10    11    1
    33    11    12    1
    34    12     7    1
    35     6     1    1
    36    28    23   ar
@<TRIPOS>MOLECULE
*****
 34 36 0 0 0
SMALL
GASTEIGER

@<TRIPOS>ATOM
      1 C         142.0677  139.0855  164.5038 C.3     1  UNL1        0.0690
      2 C         140.9419  138.0958  164.4475 C.3     1  UNL1        0.0485
      3 C         140.7905  137.1993  163.2544 C.3     1  UNL1        0.1436
      4 O         141.7648  137.2924  162.1178 O.3     1  UNL1       -0.3537
      5 C         142.8906  138.2820  162.1742 C.3     1  UNL1        0.1436
      6 C         143.0420  139.1786  163.3672 C.3     1  UNL1        0.0485
      7 N         140.0775  139.9403  168.4482 N.3     1  UNL1       -0.2682
      8 C         139.2490  139.7923  167.2067 C.3     1  UNL1        0.0897
      9 C         139.9124  139.5073  165.8918 C.3     1  UNL1        0.0896
     10 N         141.4043  139.3704  165.8186 N.3     1  UNL1       -0.2710
     11 C         142.2328  139.5184  167.0602 C.3     1  UNL1        0.0896
     12 C         141.5694  139.8034  168.3750 C.3     1  UNL1        0.0897
     13 C         139.4141  140.2252  169.7631 C.3     1  UNL1        0.1046
     14 C         140.2176  140.2004  171.0294 C.3     1  UNL1        0.1594
     15 O         140.7300  141.4816  171.6177 O.3     1  UNL1       -0.3523
     16 C         141.9535  142.1334  171.0447 C.3     1  UNL1        0.1422
     17 C         140.4782  143.6754  169.5630 C.3     1  UNL1        0.0027
     18 C         141.8162  143.3241  170.1428 C.3     1  UNL1        0.0321
     19 C         142.9631  140.1741  165.0169 C.3     1  UNL1        0.1143
     20 N         142.8428  141.5650  164.4681 N.am    1  UNL1       -0.2425
     21 C         144.0639  142.2871  163.9809 C.2     1  UNL1        0.2304
     22 O         145.4052  141.6185  164.0423 O.2     1  UNL1       -0.2745
     23 C         141.5015  142.2336  164.4067 C.ar    1  UNL1        0.1373
     24 C         140.9699  142.9599  165.6067 C.ar    1  UNL1        0.0347
     25 C         139.6286  143.6285  165.5452 C.ar    1  UNL1        0.0044
     26 C         138.8189  143.5709  164.2839 C.ar    1  UNL1        0.0232
     27 C         139.3506  142.8446  163.0839 C.ar    1  UNL1        0.1540
     28 N         140.6919  142.1760  163.1453 N.ar    1  UNL1       -0.2263
     29 C         138.5408  142.7871  161.8225 C.3     1  UNL1        0.4349
     30 F         137.7310  142.7294  160.5612 F       1  UNL1       -0.1644
     31 F         139.5021  143.7304  161.1623 F       1  UNL1       -0.1644
     32 F         137.5794  141.8437  162.4828 F       1  UNL1       -0.1644
     33 C         143.9437  143.6779  163.4321 C.3     1  UNL1        0.0857
     34 C         143.9323  144.8534  164.3638 C.3     1  UNL1        0.0101
@<TRIPOS>BOND
     1    17    18    1
     2    18    16    1
     3    16    15    1
     4    15    14    1
     5    14    13    1
     6    13     7    1
     7     7     8    1
     8     8     9    1
     9     9    10    1
    10    10     1    1
    11     1    19    1
    12    19    20    1
    13    20    21   am
    14    21    22    2
    15    21    33    1
    16    33    34    1
    17    20    23    1
    18    23    24   ar
    19    24    25   ar
    20    25    26   ar
    21    26    27   ar
    22    27    29    1
    23    29    30    1
    24    29    31    1
    25    29    32    1
    26    27    28   ar
    27     1     2    1
    28     2     3    1
    29     3     4    1
    30     4     5    1
    31     5     6    1
    32    10    11    1
    33    11    12    1
    34    12     7    1
    35     6     1    1
    36    28    23   ar
@<TRIPOS>MOLECULE
*****
 34 36 0 0 0
SMALL
GASTEIGER

@<TRIPOS>ATOM
      1 C         143.5644  141.9960  164.5855 C.3     1  UNL1        0.0690
      2 C         144.4405  140.7794  164.5352 C.3     1  UNL1        0.0485
      3 C         145.2935  140.5189  163.3291 C.3     1  UNL1        0.1436
      4 O         145.2705  141.4749  162.1735 O.3     1  UNL1       -0.3537
      5 C         144.3945  142.6914  162.2238 C.3     1  UNL1        0.1436
      6 C         143.5414  142.9520  163.4299 C.3     1  UNL1        0.0485
      7 N         142.6050  140.1760  168.5876 N.3     1  UNL1       -0.2682
      8 C         142.6616  139.3101  167.3641 C.3     1  UNL1        0.0897
      9 C         142.9814  139.9168  166.0301 C.3     1  UNL1        0.0896
     10 N         143.2446  141.3893  165.9195 N.3     1  UNL1       -0.2710
     11 C         143.1881  142.2552  167.1431 C.3     1  UNL1        0.0896
     12 C         142.8683  141.6485  168.4771 C.3     1  UNL1        0.0897
     13 C         142.2852  139.5693  169.9217 C.3     1  UNL1        0.1046
     14 C         140.9026  139.6933  170.4899 C.3     1  UNL1        0.1594
     15 O         140.6404  140.6375  171.6256 O.3     1  UNL1       -0.3523
     16 C         140.7325  142.1185  171.4061 C.3     1  UNL1        0.1422
     17 C         140.3011  144.0712  169.7475 C.3     1  UNL1        0.0027
     18 C         139.8677  142.7789  170.3736 C.3     1  UNL1        0.0321
     19 C         142.5773  143.0018  165.0992 C.3     1  UNL1        0.1143
     20 N         141.1538  142.9639  164.6279 N.am    1  UNL1       -0.2425
     21 C         140.5181  144.1988  164.0614 C.2     1  UNL1        0.2304
     22 O         141.3060  145.4716  163.9662 O.2     1  UNL1       -0.2745
     23 C         140.3659  141.6910  164.7231 C.ar    1  UNL1        0.1373
     24 C         139.6542  141.3430  165.9969 C.ar    1  UNL1        0.0347
     25 C         138.8663  140.0702  166.0921 C.ar    1  UNL1        0.0044
     26 C         138.7902  139.1453  164.9137 C.ar    1  UNL1        0.0232
     27 C         139.5019  139.4933  163.6399 C.ar    1  UNL1        0.1540
     28 N         140.2897  140.7662  163.5447 N.ar    1  UNL1       -0.2263
     29 C         139.4257  138.5684  162.4615 C.3     1  UNL1        0.4349
     30 F         139.3495  137.6435  161.2830 F       1  UNL1       -0.1644
     31 F         138.6058  137.6066  163.2693 F       1  UNL1       -0.1644
     32 F         140.2456  139.5302  161.6536 F       1  UNL1       -0.1644
     33 C         139.0946  144.1609  163.5901 C.3     1  UNL1        0.0857
     34 C         137.9747  144.3473  164.5704 C.3     1  UNL1        0.0101
@<TRIPOS>BOND
     1    17    18    1
     2    18    16    1
     3    16    15    1
     4    15    14    1
     5    14    13    1
     6    13     7    1
     7     7     8    1
     8     8     9    1
     9     9    10    1
    10    10     1    1
    11     1    19    1
    12    19    20    1
    13    20    21   am
    14    21    22    2
    15    21    33    1
    16    33    34    1
    17    20    23    1
    18    23    24   ar
    19    24    25   ar
    20    25    26   ar
    21    26    27   ar
    22    27    29    1
    23    29    30    1
    24    29    31    1
    25    29    32    1
    26    27    28   ar
    27     1     2    1
    28     2     3    1
    29     3     4    1
    30     4     5    1
    31     5     6    1
    32    10    11    1
    33    11    12    1
    34    12     7    1
    35     6     1    1
    36    28    23   ar
@<TRIPOS>MOLECULE
*****
 34 36 0 0 0
SMALL
GASTEIGER

@<TRIPOS>ATOM
      1 C         139.9861  139.2123  165.8129 C.3     1  UNL1        0.0690
      2 C         140.4743  139.8290  167.0901 C.3     1  UNL1        0.0485
      3 C         139.5934  139.8359  168.3042 C.3     1  UNL1        0.1436
      4 O         138.2244  139.2262  168.2411 O.3     1  UNL1       -0.3537
      5 C         137.7362  138.6095  166.9638 C.3     1  UNL1        0.1436
      6 C         138.6172  138.6025  165.7497 C.3     1  UNL1        0.0485
      7 N         144.0782  140.5618  164.5152 N.3     1  UNL1       -0.2682
      8 C         143.5829  139.1978  164.1356 C.3     1  UNL1        0.0897
      9 C         142.2188  138.7479  164.5682 C.3     1  UNL1        0.0896
     10 N         141.3502  139.6621  165.3803 N.3     1  UNL1       -0.2710
     11 C         141.8455  141.0261  165.7599 C.3     1  UNL1        0.0896
     12 C         143.2095  141.4759  165.3274 C.3     1  UNL1        0.0897
     13 C         145.4422  141.0116  164.0826 C.3     1  UNL1        0.1046
     14 C         145.6032  141.8179  162.8281 C.3     1  UNL1        0.1594
     15 O         144.4449  142.6025  162.2870 O.3     1  UNL1       -0.3523
     16 C         144.4276  144.0972  162.4121 C.3     1  UNL1        0.1422
     17 C         144.1013  144.9501  164.8444 C.3     1  UNL1        0.0027
     18 C         143.5716  144.7526  163.4550 C.3     1  UNL1        0.0321
     19 C         139.9718  138.7518  164.3854 C.3     1  UNL1        0.1143
     20 N         139.2705  139.5687  163.3409 N.am    1  UNL1       -0.2425
     21 C         138.3214  138.9089  162.3850 C.2     1  UNL1        0.2304
     22 O         138.0734  137.4322  162.4736 O.2     1  UNL1       -0.2745
     23 C         139.5184  141.0454  163.2523 C.ar    1  UNL1        0.1373
     24 C         140.4956  141.5830  162.2492 C.ar    1  UNL1        0.0347
     25 C         140.7435  143.0597  162.1606 C.ar    1  UNL1        0.0044
     26 C         140.0143  143.9988  163.0751 C.ar    1  UNL1        0.0232
     27 C         139.0371  143.4612  164.0782 C.ar    1  UNL1        0.1540
     28 N         138.7892  141.9845  164.1668 N.ar    1  UNL1       -0.2263
     29 C         138.3080  144.4004  164.9927 C.3     1  UNL1        0.4349
     30 F         137.5787  145.3395  165.9072 F       1  UNL1       -0.1644
     31 F         139.4926  145.3205  164.9924 F       1  UNL1       -0.1644
     32 F         137.1233  143.4802  164.9930 F       1  UNL1       -0.1644
     33 C         137.6201  139.7257  161.3405 C.3     1  UNL1        0.0857
     34 C         138.1704  139.7934  159.9468 C.3     1  UNL1        0.0101
@<TRIPOS>BOND
     1    17    18    1
     2    18    16    1
     3    16    15    1
     4    15    14    1
     5    14    13    1
     6    13     7    1
     7     7     8    1
     8     8     9    1
     9     9    10    1
    10    10     1    1
    11     1    19    1
    12    19    20    1
    13    20    21   am
    14    21    22    2
    15    21    33    1
    16    33    34    1
    17    20    23    1
    18    23    24   ar
    19    24    25   ar
    20    25    26   ar
    21    26    27   ar
    22    27    29    1
    23    29    30    1
    24    29    31    1
    25    29    32    1
    26    27    28   ar
    27     1     2    1
    28     2     3    1
    29     3     4    1
    30     4     5    1
    31     5     6    1
    32    10    11    1
    33    11    12    1
    34    12     7    1
    35     6     1    1
    36    28    23   ar
@<TRIPOS>MOLECULE
*****
 34 36 0 0 0
SMALL
GASTEIGER

@<TRIPOS>ATOM
      1 C         142.6362  142.5858  165.2024 C.3     1  UNL1        0.0690
      2 C         143.9621  141.8907  165.1087 C.3     1  UNL1        0.0485
      3 C         144.9063  142.2238  163.9917 C.3     1  UNL1        0.1436
      4 O         144.5246  143.2520  162.9685 O.3     1  UNL1       -0.3537
      5 C         143.1986  143.9470  163.0621 C.3     1  UNL1        0.1436
      6 C         142.2544  143.6139  164.1791 C.3     1  UNL1        0.0485
      7 N         142.3676  139.9017  168.8042 N.3     1  UNL1       -0.2682
      8 C         142.1278  141.3754  168.9475 C.3     1  UNL1        0.0897
      9 C         142.2173  142.2701  167.7469 C.3     1  UNL1        0.0896
     10 N         142.5467  141.6911  166.4030 N.3     1  UNL1       -0.2710
     11 C         142.7865  140.2173  166.2597 C.3     1  UNL1        0.0896
     12 C         142.6970  139.3227  167.4603 C.3     1  UNL1        0.0897
     13 C         142.2781  139.0070  170.0049 C.3     1  UNL1        0.1046
     14 C         143.5174  138.3690  170.5588 C.3     1  UNL1        0.1594
     15 O         143.5808  136.8805  170.7336 O.3     1  UNL1       -0.3523
     16 C         144.8725  136.1529  170.5050 C.3     1  UNL1        0.1422
     17 C         145.2888  134.8988  172.7420 C.3     1  UNL1        0.0027
     18 C         145.7658  135.8280  171.6654 C.3     1  UNL1        0.0321
     19 C         141.2792  142.9701  165.7130 C.3     1  UNL1        0.1143
     20 N         140.0490  142.5422  164.9689 N.am    1  UNL1       -0.2425
     21 C         139.0414  143.5650  164.5347 C.2     1  UNL1        0.2304
     22 O         139.2639  145.0157  164.8445 O.2     1  UNL1       -0.2745
     23 C         139.8264  141.0915  164.6591 C.ar    1  UNL1        0.1373
     24 C         140.3769  140.5017  163.3945 C.ar    1  UNL1        0.0347
     25 C         140.1543  139.0510  163.0847 C.ar    1  UNL1        0.0044
     26 C         139.3815  138.1902  164.0394 C.ar    1  UNL1        0.0232
     27 C         138.8310  138.7800  165.3040 C.ar    1  UNL1        0.1540
     28 N         139.0536  140.2307  165.6138 N.ar    1  UNL1       -0.2263
     29 C         138.0581  137.9191  166.2587 C.3     1  UNL1        0.4349
     30 F         137.2852  137.0581  167.2134 F       1  UNL1       -0.1644
     31 F         137.5118  139.1474  166.9242 F       1  UNL1       -0.1644
     32 F         138.6044  136.6907  165.5932 F       1  UNL1       -0.1644
     33 C         137.8112  143.1372  163.7906 C.3     1  UNL1        0.0857
     34 C         137.8345  143.0439  162.2938 C.3     1  UNL1        0.0101
@<TRIPOS>BOND
     1    17    18    1
     2    18    16    1
     3    16    15    1
     4    15    14    1
     5    14    13    1
     6    13     7    1
     7     7     8    1
     8     8     9    1
     9     9    10    1
    10    10     1    1
    11     1    19    1
    12    19    20    1
    13    20    21   am
    14    21    22    2
    15    21    33    1
    16    33    34    1
    17    20    23    1
    18    23    24   ar
    19    24    25   ar
    20    25    26   ar
    21    26    27   ar
    22    27    29    1
    23    29    30    1
    24    29    31    1
    25    29    32    1
    26    27    28   ar
    27     1     2    1
    28     2     3    1
    29     3     4    1
    30     4     5    1
    31     5     6    1
    32    10    11    1
    33    11    12    1
    34    12     7    1
    35     6     1    1
    36    28    23   ar
@<TRIPOS>MOLECULE
*****
 34 36 0 0 0
SMALL
GASTEIGER

@<TRIPOS>ATOM
      1 C         142.9123  141.9777  164.0821 C.3     1  UNL1        0.0690
      2 C         144.1062  141.4465  164.8184 C.3     1  UNL1        0.0485
      3 C         145.4600  141.4771  164.1731 C.3     1  UNL1        0.1436
      4 O         145.6198  142.0390  162.7916 O.3     1  UNL1       -0.3537
      5 C         144.4259  142.5703  162.0553 C.3     1  UNL1        0.1436
      6 C         143.0721  142.5396  162.7005 C.3     1  UNL1        0.0485
      7 N         140.9525  140.6903  167.9229 N.3     1  UNL1       -0.2682
      8 C         140.6413  142.0352  167.3362 C.3     1  UNL1        0.0897
      9 C         141.2946  142.4644  166.0559 C.3     1  UNL1        0.0896
     10 N         142.2590  141.5486  165.3623 N.3     1  UNL1       -0.2710
     11 C         142.5702  140.2036  165.9490 C.3     1  UNL1        0.0896
     12 C         141.9170  139.7745  167.2293 C.3     1  UNL1        0.0897
     13 C         140.2993  140.2611  169.2032 C.3     1  UNL1        0.1046
     14 C         139.5260  141.2535  170.0199 C.3     1  UNL1        0.1594
     15 O         140.2327  142.1031  171.0341 O.3     1  UNL1       -0.3523
     16 C         141.7180  141.9851  171.2072 C.3     1  UNL1        0.1422
     17 C         143.7506  142.3136  169.6227 C.3     1  UNL1        0.0027
     18 C         142.6365  142.8924  170.4435 C.3     1  UNL1        0.0321
     19 C         141.4914  142.3599  163.7904 C.3     1  UNL1        0.1143
     20 N         140.6049  141.4232  163.0243 N.am    1  UNL1       -0.2425
     21 C         139.9578  141.8772  161.7496 C.2     1  UNL1        0.2304
     22 O         140.1971  143.2679  161.2408 O.2     1  UNL1       -0.2745
     23 C         140.3657  140.0326  163.5330 C.ar    1  UNL1        0.1373
     24 C         141.1365  138.8810  162.9589 C.ar    1  UNL1        0.0347
     25 C         140.8973  137.4903  163.4676 C.ar    1  UNL1        0.0044
     26 C         139.8872  137.2513  164.5504 C.ar    1  UNL1        0.0232
     27 C         139.1164  138.4029  165.1246 C.ar    1  UNL1        0.1540
     28 N         139.3556  139.7935  164.6159 N.ar    1  UNL1       -0.2263
     29 C         138.1063  138.1637  166.2075 C.3     1  UNL1        0.4349
     30 F         137.0963  137.9247  167.2904 F       1  UNL1       -0.1644
     31 F         138.1350  136.6939  165.9098 F       1  UNL1       -0.1644
     32 F         138.0776  139.6337  166.5053 F       1  UNL1       -0.1644
     33 C         139.0714  140.9406  160.9835 C.3     1  UNL1        0.0857
     34 C         137.6693  140.6841  161.4507 C.3     1  UNL1        0.0101
@<TRIPOS>BOND
     1    17    18    1
     2    18    16    1
     3    16    15    1
     4    15    14    1
     5    14    13    1
     6    13     7    1
     7     7     8    1
     8     8     9    1
     9     9    10    1
    10    10     1    1
    11     1    19    1
    12    19    20    1
    13    20    21   am
    14    21    22    2
    15    21    33    1
    16    33    34    1
    17    20    23    1
    18    23    24   ar
    19    24    25   ar
    20    25    26   ar
    21    26    27   ar
    22    27    29    1
    23    29    30    1
    24    29    31    1
    25    29    32    1
    26    27    28   ar
    27     1     2    1
    28     2     3    1
    29     3     4    1
    30     4     5    1
    31     5     6    1
    32    10    11    1
    33    11    12    1
    34    12     7    1
    35     6     1    1
    36    28    23   ar
@<TRIPOS>MOLECULE
*****
 34 36 0 0 0
SMALL
GASTEIGER

@<TRIPOS>ATOM
      1 C         141.5173  141.5057  167.5937 C.3     1  UNL1        0.0690
      2 C         142.4292  140.4057  168.0503 C.3     1  UNL1        0.0485
      3 C         142.1201  139.6487  169.3079 C.3     1  UNL1        0.1436
      4 O         140.8991  139.9917  170.1088 O.3     1  UNL1       -0.3537
      5 C         139.9872  141.0916  169.6522 C.3     1  UNL1        0.1436
      6 C         140.2963  141.8486  168.3946 C.3     1  UNL1        0.0485
      7 N         144.6024  141.6388  164.3203 N.3     1  UNL1       -0.2682
      8 C         144.1729  142.9061  164.9982 C.3     1  UNL1        0.0897
      9 C         143.1446  142.8617  166.0893 C.3     1  UNL1        0.0896
     10 N         142.5457  141.5500  166.5026 N.3     1  UNL1       -0.2710
     11 C         142.9751  140.2828  165.8247 C.3     1  UNL1        0.0896
     12 C         144.0034  140.3271  164.7336 C.3     1  UNL1        0.0897
     13 C         145.6307  141.6832  163.2292 C.3     1  UNL1        0.1046
     14 C         145.2370  142.1036  161.8443 C.3     1  UNL1        0.1594
     15 O         144.1087  141.4085  161.1416 O.3     1  UNL1       -0.3523
     16 C         142.7079  141.9277  161.2764 C.3     1  UNL1        0.1422
     17 C         141.4075  143.7289  162.6236 C.3     1  UNL1        0.0027
     18 C         142.4720  143.3660  161.6310 C.3     1  UNL1        0.0321
     19 C         140.9626  142.6210  166.7581 C.3     1  UNL1        0.1143
     20 N         139.8204  142.3598  165.8214 N.am    1  UNL1       -0.2425
     21 C         138.9553  143.4945  165.3588 C.2     1  UNL1        0.2304
     22 O         139.2323  144.8904  165.8328 O.2     1  UNL1       -0.2745
     23 C         139.5434  140.9639  165.3474 C.ar    1  UNL1        0.1373
     24 C         140.0148  140.5245  163.9928 C.ar    1  UNL1        0.0347
     25 C         139.7378  139.1286  163.5187 C.ar    1  UNL1        0.0044
     26 C         138.9895  138.1721  164.3992 C.ar    1  UNL1        0.0232
     27 C         138.5182  138.6116  165.7538 C.ar    1  UNL1        0.1540
     28 N         138.7952  140.0075  166.2278 N.ar    1  UNL1       -0.2263
     29 C         137.7700  137.6550  166.6342 C.3     1  UNL1        0.4349
     30 F         137.0217  136.6984  167.5146 F       1  UNL1       -0.1644
     31 F         137.3905  138.7872  167.5419 F       1  UNL1       -0.1644
     32 F         138.1494  136.5227  165.7264 F       1  UNL1       -0.1644
     33 C         137.8132  143.2334  164.4221 C.3     1  UNL1        0.0857
     34 C         137.6903  144.0208  163.1514 C.3     1  UNL1        0.0101
@<TRIPOS>BOND
     1    17    18    1
     2    18    16    1
     3    16    15    1
     4    15    14    1
     5    14    13    1
     6    13     7    1
     7     7     8    1
     8     8     9    1
     9     9    10    1
    10    10     1    1
    11     1    19    1
    12    19    20    1
    13    20    21   am
    14    21    22    2
    15    21    33    1
    16    33    34    1
    17    20    23    1
    18    23    24   ar
    19    24    25   ar
    20    25    26   ar
    21    26    27   ar
    22    27    29    1
    23    29    30    1
    24    29    31    1
    25    29    32    1
    26    27    28   ar
    27     1     2    1
    28     2     3    1
    29     3     4    1
    30     4     5    1
    31     5     6    1
    32    10    11    1
    33    11    12    1
    34    12     7    1
    35     6     1    1
    36    28    23   ar
@<TRIPOS>MOLECULE
*****
 34 36 0 0 0
SMALL
GASTEIGER

@<TRIPOS>ATOM
      1 C         139.0640  142.1696  164.4101 C.3     1  UNL1        0.0690
      2 C         139.5253  143.4703  164.9978 C.3     1  UNL1        0.0485
      3 C         139.1134  144.7668  164.3657 C.3     1  UNL1        0.1436
      4 O         138.2404  144.7626  163.1460 O.3     1  UNL1       -0.3537
      5 C         137.7792  143.4619  162.5583 C.3     1  UNL1        0.1436
      6 C         138.1910  142.1653  163.1904 C.3     1  UNL1        0.0485
      7 N         141.4960  140.6430  167.8750 N.3     1  UNL1       -0.2682
      8 C         140.1558  140.0394  167.5756 C.3     1  UNL1        0.0897
      9 C         139.3452  140.5483  166.4207 C.3     1  UNL1        0.0896
     10 N         139.8747  141.6607  165.5651 N.3     1  UNL1       -0.2710
     11 C         141.2148  142.2643  165.8645 C.3     1  UNL1        0.0896
     12 C         142.0255  141.7554  167.0194 C.3     1  UNL1        0.0897
     13 C         142.3066  140.1341  169.0300 C.3     1  UNL1        0.1046
     14 C         141.6201  139.5439  170.2258 C.3     1  UNL1        0.1594
     15 O         140.5563  140.3233  170.9406 O.3     1  UNL1       -0.3523
     16 C         140.7593  141.7819  171.2260 C.3     1  UNL1        0.1422
     17 C         140.4147  143.8111  169.6405 C.3     1  UNL1        0.0027
     18 C         139.8555  142.8017  170.5989 C.3     1  UNL1        0.0321
     19 C         138.8843  140.6921  164.2236 C.3     1  UNL1        0.1143
     20 N         139.7550  139.9470  163.2557 N.am    1  UNL1       -0.2425
     21 C         139.1326  139.0969  162.1880 C.2     1  UNL1        0.2304
     22 O         137.6396  138.9919  162.0883 O.2     1  UNL1       -0.2745
     23 C         141.2479  140.0521  163.3554 C.ar    1  UNL1        0.1373
     24 C         142.0003  140.9546  162.4229 C.ar    1  UNL1        0.0347
     25 C         143.4932  141.0596  162.5226 C.ar    1  UNL1        0.0044
     26 C         144.2339  140.2623  163.5549 C.ar    1  UNL1        0.0232
     27 C         143.4816  139.3598  164.4874 C.ar    1  UNL1        0.1540
     28 N         141.9886  139.2547  164.3877 N.ar    1  UNL1       -0.2263
     29 C         144.2223  138.5624  165.5197 C.3     1  UNL1        0.4349
     30 F         144.9632  137.7651  166.5519 F       1  UNL1       -0.1644
     31 F         142.9205  138.1828  166.1608 F       1  UNL1       -0.1644
     32 F         145.5243  138.9421  164.8786 F       1  UNL1       -0.1644
     33 C         140.0031  138.3518  161.2201 C.3     1  UNL1        0.0857
     34 C         140.2139  138.8875  159.8350 C.3     1  UNL1        0.0101
@<TRIPOS>BOND
     1    17    18    1
     2    18    16    1
     3    16    15    1
     4    15    14    1
     5    14    13    1
     6    13     7    1
     7     7     8    1
     8     8     9    1
     9     9    10    1
    10    10     1    1
    11     1    19    1
    12    19    20    1
    13    20    21   am
    14    21    22    2
    15    21    33    1
    16    33    34    1
    17    20    23    1
    18    23    24   ar
    19    24    25   ar
    20    25    26   ar
    21    26    27   ar
    22    27    29    1
    23    29    30    1
    24    29    31    1
    25    29    32    1
    26    27    28   ar
    27     1     2    1
    28     2     3    1
    29     3     4    1
    30     4     5    1
    31     5     6    1
    32    10    11    1
    33    11    12    1
    34    12     7    1
    35     6     1    1
    36    28    23   ar
