@<TRIPOS>MOLECULE
*****
 37 40 0 0 0
SMALL
GASTEIGER

@<TRIPOS>ATOM
      1 N         138.1711  138.9267  162.5035 N.pl3   1  UNL1       -0.2133
      2 H         137.2583  138.6777  162.7755 H       1  UNL1        0.1738
      3 C         138.4601  139.2690  161.0720 C.ar    1  UNL1        0.0845
      4 C         137.7135  140.3842  160.4020 C.ar    1  UNL1        0.1147
      5 N         138.0025  140.7265  158.9705 N.ar    1  UNL1       -0.2403
      6 C         139.0381  139.9535  158.2089 C.ar    1  UNL1        0.1071
      7 C         139.7847  138.8382  158.8788 C.ar    1  UNL1        0.0621
      8 C         139.4957  138.4959  160.3104 C.ar    1  UNL1        0.0272
      9 C         140.8202  138.0652  158.1172 C.1     1  UNL1       -0.0614
     10 C         141.8558  137.2922  157.3556 C.1     1  UNL1       -0.0684
     11 C         142.8914  136.5192  156.5939 C.3     1  UNL1        0.1502
     12 N         142.7561  135.0331  156.4411 N.3     1  UNL1       -0.2591
     13 C         141.7292  134.4656  155.5064 C.3     1  UNL1        0.0904
     14 C         141.5940  132.9796  155.3537 C.3     1  UNL1        0.0897
     15 N         142.4855  132.0610  156.1356 N.3     1  UNL1       -0.2716
     16 C         143.5123  132.6285  157.0703 C.3     1  UNL1        0.0897
     17 C         143.6476  134.1145  157.2230 C.3     1  UNL1        0.0904
     18 C         142.3503  130.5749  155.9828 C.3     1  UNL1        0.0577
     19 C         143.2333  129.6562  156.7742 C.3     1  UNL1        0.0173
     20 C         141.3320  130.0076  155.0388 C.3     1  UNL1        0.0173
     21 S         139.2728  138.9640  163.5207 S.O2    1  UNL1        0.0781
     22 O         139.0630  137.5056  163.8014 O.2     1  UNL1       -0.1498
     23 O         139.4827  140.4224  163.2400 O.2     1  UNL1       -0.1498
     24 C         141.7574  138.5575  164.1625 C.ar    1  UNL1        0.2444
     25 N         142.8591  138.5948  165.1797 N.ar    1  UNL1       -0.2090
     26 C         142.5781  139.0760  166.5724 C.ar    1  UNL1        0.1018
     27 C         141.1954  139.5199  166.9478 C.ar    1  UNL1        0.0166
     28 C         140.0937  139.4825  165.9306 C.ar    1  UNL1        0.0262
     29 C         140.3747  139.0013  164.5379 C.ar    1  UNL1        0.1780
     30 C         140.9144  140.0011  168.3405 C.2     1  UNL1       -0.0200
     31 C         142.0388  140.1592  169.3205 C.2     1  UNL1        0.0015
     32 C         141.7578  140.6404  170.7132 C.3     1  UNL1        0.1680
     33 O         140.3524  140.9635  171.1258 O.3     1  UNL1       -0.3487
     34 C         139.2279  140.8053  170.1457 C.3     1  UNL1        0.1473
     35 C         139.5089  140.3241  168.7531 C.3     1  UNL1        0.0582
     36 C         143.4108  138.2323  162.1850 C.3     1  UNL1        0.2543
     37 O         142.0384  138.0762  162.7698 O.3     1  UNL1       -0.4552
@<TRIPOS>BOND
     1    36    37    1
     2    37    24    1
     3    24    25   ar
     4    25    26   ar
     5    26    27   ar
     6    27    30    1
     7    30    31    2
     8    31    32    1
     9    32    33    1
    10    33    34    1
    11    34    35    1
    12    27    28   ar
    13    28    29   ar
    14    29    21    1
    15    21    22    2
    16    21    23    2
    17    21     1    1
    18     1     3    1
    19     3     4   ar
    20     4     5   ar
    21     5     6   ar
    22     6     7   ar
    23     7     9    1
    24     9    10    3
    25    10    11    1
    26    11    12    1
    27    12    13    1
    28    13    14    1
    29    14    15    1
    30    15    18    1
    31    18    19    1
    32    18    20    1
    33    15    16    1
    34    16    17    1
    35     7     8   ar
    36    29    24   ar
    37     8     3   ar
    38    35    30    1
    39    17    12    1
    40     1     2    1
@<TRIPOS>MOLECULE
*****
 37 40 0 0 0
SMALL
GASTEIGER

@<TRIPOS>ATOM
      1 N         141.8865  144.9315  162.5436 N.pl3   1  UNL1       -0.2133
      2 H         142.1196  145.8333  162.8623 H       1  UNL1        0.1738
      3 C         141.5085  144.7179  161.1078 C.ar    1  UNL1        0.0845
      4 C         140.3650  145.4838  160.5113 C.ar    1  UNL1        0.1147
      5 N         139.9871  145.2702  159.0755 N.ar    1  UNL1       -0.2403
      6 C         140.7527  144.2908  158.2361 C.ar    1  UNL1        0.1071
      7 C         141.8963  143.5249  158.8326 C.ar    1  UNL1        0.0621
      8 C         142.2742  143.7384  160.2684 C.ar    1  UNL1        0.0272
      9 C         142.6618  142.5455  157.9932 C.1     1  UNL1       -0.0614
     10 C         143.4274  141.5661  157.1538 C.1     1  UNL1       -0.0684
     11 C         144.1930  140.5866  156.3144 C.3     1  UNL1        0.1502
     12 N         143.8810  139.1219  156.3986 N.3     1  UNL1       -0.2591
     13 C         142.9781  138.6084  157.4809 C.3     1  UNL1        0.0904
     14 C         142.6660  137.1437  157.5651 C.3     1  UNL1        0.0897
     15 N         143.2568  136.1923  156.5671 N.3     1  UNL1       -0.2716
     16 C         144.1596  136.7058  155.4849 C.3     1  UNL1        0.0897
     17 C         144.4717  138.1706  155.4006 C.3     1  UNL1        0.0904
     18 C         142.9447  134.7276  156.6513 C.3     1  UNL1        0.0577
     19 C         143.6363  133.8708  157.6700 C.3     1  UNL1        0.0173
     20 C         141.9411  134.1197  155.7169 C.3     1  UNL1        0.0173
     21 S         141.9093  143.7710  163.4937 S.O2    1  UNL1        0.0781
     22 O         143.3253  144.1009  163.8626 O.2     1  UNL1       -0.1498
     23 O         140.4933  143.4411  163.1248 O.2     1  UNL1       -0.1498
     24 C         142.6337  141.3413  164.0608 C.ar    1  UNL1        0.2444
     25 N         142.6564  140.1808  165.0110 N.ar    1  UNL1       -0.2090
     26 C         141.9775  140.2896  166.3441 C.ar    1  UNL1        0.1018
     27 C         141.2759  141.5589  166.7272 C.ar    1  UNL1        0.0166
     28 C         141.2532  142.7193  165.7770 C.ar    1  UNL1        0.0262
     29 C         141.9321  142.6105  164.4439 C.ar    1  UNL1        0.1780
     30 C         140.5971  141.6677  168.0603 C.2     1  UNL1       -0.0200
     31 C         139.8230  140.5040  168.6050 C.2     1  UNL1        0.0015
     32 C         139.1441  140.6128  169.9381 C.3     1  UNL1        0.1680
     33 O         139.2394  141.8852  170.7266 O.3     1  UNL1       -0.3487
     34 C         140.0134  143.0489  170.1820 C.3     1  UNL1        0.1473
     35 C         140.6923  142.9401  168.8488 C.3     1  UNL1        0.0582
     36 C         144.5894  140.4562  162.5974 C.3     1  UNL1        0.2543
     37 O         143.3125  141.2325  162.7277 O.3     1  UNL1       -0.4552
@<TRIPOS>BOND
     1    36    37    1
     2    37    24    1
     3    24    25   ar
     4    25    26   ar
     5    26    27   ar
     6    27    30    1
     7    30    31    2
     8    31    32    1
     9    32    33    1
    10    33    34    1
    11    34    35    1
    12    27    28   ar
    13    28    29   ar
    14    29    21    1
    15    21    22    2
    16    21    23    2
    17    21     1    1
    18     1     3    1
    19     3     4   ar
    20     4     5   ar
    21     5     6   ar
    22     6     7   ar
    23     7     9    1
    24     9    10    3
    25    10    11    1
    26    11    12    1
    27    12    13    1
    28    13    14    1
    29    14    15    1
    30    15    18    1
    31    18    19    1
    32    18    20    1
    33    15    16    1
    34    16    17    1
    35     7     8   ar
    36    29    24   ar
    37     8     3   ar
    38    35    30    1
    39    17    12    1
    40     1     2    1
@<TRIPOS>MOLECULE
*****
 37 40 0 0 0
SMALL
GASTEIGER

@<TRIPOS>ATOM
      1 N         144.3160  140.2738  163.0795 N.pl3   1  UNL1       -0.2133
      2 H         145.2085  140.1311  163.4698 H       1  UNL1        0.1738
      3 C         144.1750  140.5530  161.6124 C.ar    1  UNL1        0.0845
      4 C         144.6002  141.8800  161.0573 C.ar    1  UNL1        0.1147
      5 N         144.4592  142.1592  159.5902 N.ar    1  UNL1       -0.2403
      6 C         143.8930  141.1114  158.6784 C.ar    1  UNL1        0.1071
      7 C         143.4678  139.7843  159.2335 C.ar    1  UNL1        0.0621
      8 C         143.6088  139.5051  160.7006 C.ar    1  UNL1        0.0272
      9 C         142.9017  138.7365  158.3217 C.1     1  UNL1       -0.0614
     10 C         142.3355  137.6887  157.4098 C.1     1  UNL1       -0.0684
     11 C         141.7693  136.6408  156.4979 C.3     1  UNL1        0.1502
     12 N         142.3098  135.2421  156.5361 N.3     1  UNL1       -0.2591
     13 C         143.4056  134.8874  157.4970 C.3     1  UNL1        0.0904
     14 C         143.9461  133.4887  157.5352 C.3     1  UNL1        0.0897
     15 N         143.3906  132.4446  156.6124 N.3     1  UNL1       -0.2716
     16 C         142.2948  132.7993  155.6515 C.3     1  UNL1        0.0897
     17 C         141.7544  134.1981  155.6134 C.3     1  UNL1        0.0904
     18 C         143.9310  131.0459  156.6505 C.3     1  UNL1        0.0577
     19 C         144.9026  130.5884  155.6031 C.3     1  UNL1        0.0173
     20 C         143.4999  130.1046  157.7359 C.3     1  UNL1        0.0173
     21 S         143.0973  140.2121  163.9517 S.O2    1  UNL1        0.0781
     22 O         143.6205  138.9618  164.5943 O.2     1  UNL1       -0.1498
     23 O         142.5741  141.4625  163.3091 O.2     1  UNL1       -0.1498
     24 C         140.6563  139.4187  164.3543 C.ar    1  UNL1        0.2444
     25 N         139.4376  139.3571  165.2265 N.ar    1  UNL1       -0.2090
     26 C         139.4411  140.0272  166.5685 C.ar    1  UNL1        0.1018
     27 C         140.6633  140.7590  167.0382 C.ar    1  UNL1        0.0166
     28 C         141.8820  140.8206  166.1660 C.ar    1  UNL1        0.0262
     29 C         141.8785  140.1505  164.8240 C.ar    1  UNL1        0.1780
     30 C         140.6668  141.4291  168.3802 C.2     1  UNL1       -0.0200
     31 C         140.6671  142.9264  168.4709 C.2     1  UNL1        0.0015
     32 C         140.6706  143.5965  169.8128 C.3     1  UNL1        0.1680
     33 O         140.6737  142.7694  171.0642 O.3     1  UNL1       -0.3487
     34 C         140.6734  141.2722  170.9735 C.3     1  UNL1        0.1473
     35 C         140.6699  140.6021  169.6315 C.3     1  UNL1        0.0582
     36 C         140.9657  137.2856  162.9037 C.3     1  UNL1        0.2543
     37 O         140.6528  138.7486  163.0123 O.3     1  UNL1       -0.4552
@<TRIPOS>BOND
     1    36    37    1
     2    37    24    1
     3    24    25   ar
     4    25    26   ar
     5    26    27   ar
     6    27    30    1
     7    30    31    2
     8    31    32    1
     9    32    33    1
    10    33    34    1
    11    34    35    1
    12    27    28   ar
    13    28    29   ar
    14    29    21    1
    15    21    22    2
    16    21    23    2
    17    21     1    1
    18     1     3    1
    19     3     4   ar
    20     4     5   ar
    21     5     6   ar
    22     6     7   ar
    23     7     9    1
    24     9    10    3
    25    10    11    1
    26    11    12    1
    27    12    13    1
    28    13    14    1
    29    14    15    1
    30    15    18    1
    31    18    19    1
    32    18    20    1
    33    15    16    1
    34    16    17    1
    35     7     8   ar
    36    29    24   ar
    37     8     3   ar
    38    35    30    1
    39    17    12    1
    40     1     2    1
@<TRIPOS>MOLECULE
*****
 37 40 0 0 0
SMALL
GASTEIGER

@<TRIPOS>ATOM
      1 N         143.8268  140.5663  162.7201 N.pl3   1  UNL1       -0.2133
      2 H         144.4484  139.9407  163.1576 H       1  UNL1        0.1738
      3 C         143.8755  140.7547  161.2327 C.ar    1  UNL1        0.0845
      4 C         144.4290  142.0236  160.6553 C.ar    1  UNL1        0.1147
      5 N         144.4778  142.2120  159.1679 N.ar    1  UNL1       -0.2403
      6 C         143.9730  141.1316  158.2581 C.ar    1  UNL1        0.1071
      7 C         143.4194  139.8626  158.8356 C.ar    1  UNL1        0.0621
      8 C         143.3707  139.6742  160.3229 C.ar    1  UNL1        0.0272
      9 C         142.9146  138.7822  157.9258 C.1     1  UNL1       -0.0614
     10 C         142.4098  137.7018  157.0159 C.1     1  UNL1       -0.0684
     11 C         141.9050  136.6214  156.1060 C.3     1  UNL1        0.1502
     12 N         142.3106  135.1959  156.3373 N.3     1  UNL1       -0.2591
     13 C         143.3598  134.8709  157.3590 C.3     1  UNL1        0.0904
     14 C         143.7654  133.4455  157.5902 C.3     1  UNL1        0.0897
     15 N         143.1218  132.3449  156.7998 N.3     1  UNL1       -0.2716
     16 C         142.0727  132.6699  155.7782 C.3     1  UNL1        0.0897
     17 C         141.6671  134.0953  155.5469 C.3     1  UNL1        0.0904
     18 C         143.5274  130.9194  157.0311 C.3     1  UNL1        0.0577
     19 C         142.8087  129.8105  156.3211 C.3     1  UNL1        0.0173
     20 C         144.6516  130.6028  157.9722 C.3     1  UNL1        0.0173
     21 S         142.8309  141.3310  163.5407 S.O2    1  UNL1        0.0781
     22 O         141.7532  140.3746  163.1240 O.2     1  UNL1       -0.1498
     23 O         143.9087  142.2874  163.9574 O.2     1  UNL1       -0.1498
     24 C         141.0606  143.2218  163.7432 C.ar    1  UNL1        0.2444
     25 N         140.0649  143.9865  164.5639 N.ar    1  UNL1       -0.2090
     26 C         139.8436  143.6252  166.0028 C.ar    1  UNL1        0.1018
     27 C         140.6180  142.4992  166.6210 C.ar    1  UNL1        0.0166
     28 C         141.6138  141.7345  165.8003 C.ar    1  UNL1        0.0262
     29 C         141.8351  142.0958  164.3614 C.ar    1  UNL1        0.1780
     30 C         140.3967  142.1379  168.0600 C.2     1  UNL1       -0.0200
     31 C         140.3533  143.2130  169.1050 C.2     1  UNL1        0.0015
     32 C         140.1319  142.8517  170.5440 C.3     1  UNL1        0.1680
     33 O         139.9541  141.4153  170.9378 O.3     1  UNL1       -0.3487
     34 C         139.9976  140.3402  169.8927 C.3     1  UNL1        0.1473
     35 C         140.2189  140.7015  168.4538 C.3     1  UNL1        0.0582
     36 C         141.1119  145.0034  161.8529 C.3     1  UNL1        0.2543
     37 O         141.2819  143.5831  162.3043 O.3     1  UNL1       -0.4552
@<TRIPOS>BOND
     1    36    37    1
     2    37    24    1
     3    24    25   ar
     4    25    26   ar
     5    26    27   ar
     6    27    30    1
     7    30    31    2
     8    31    32    1
     9    32    33    1
    10    33    34    1
    11    34    35    1
    12    27    28   ar
    13    28    29   ar
    14    29    21    1
    15    21    22    2
    16    21    23    2
    17    21     1    1
    18     1     3    1
    19     3     4   ar
    20     4     5   ar
    21     5     6   ar
    22     6     7   ar
    23     7     9    1
    24     9    10    3
    25    10    11    1
    26    11    12    1
    27    12    13    1
    28    13    14    1
    29    14    15    1
    30    15    18    1
    31    18    19    1
    32    18    20    1
    33    15    16    1
    34    16    17    1
    35     7     8   ar
    36    29    24   ar
    37     8     3   ar
    38    35    30    1
    39    17    12    1
    40     1     2    1
@<TRIPOS>MOLECULE
*****
 37 40 0 0 0
SMALL
GASTEIGER

@<TRIPOS>ATOM
      1 N         140.9905  145.2490  163.7921 N.pl3   1  UNL1       -0.2133
      2 H         141.3200  146.0284  164.2952 H       1  UNL1        0.1738
      3 C         140.8279  145.3315  162.3032 C.ar    1  UNL1        0.0845
      4 C         139.7543  146.1970  161.7129 C.ar    1  UNL1        0.1147
      5 N         139.5917  146.2795  160.2240 N.ar    1  UNL1       -0.2403
      6 C         140.5025  145.4966  159.3255 C.ar    1  UNL1        0.1071
      7 C         141.5761  144.6311  159.9158 C.ar    1  UNL1        0.0621
      8 C         141.7388  144.5486  161.4047 C.ar    1  UNL1        0.0272
      9 C         142.4870  143.8482  159.0173 C.1     1  UNL1       -0.0614
     10 C         143.3978  143.0654  158.1187 C.1     1  UNL1       -0.0684
     11 C         144.3087  142.2824  157.2202 C.3     1  UNL1        0.1502
     12 N         144.0101  140.8435  156.9193 N.3     1  UNL1       -0.2591
     13 C         143.0826  140.0684  157.8075 C.3     1  UNL1        0.0904
     14 C         142.7840  138.6295  157.5066 C.3     1  UNL1        0.0897
     15 N         143.4131  137.9658  156.3175 N.3     1  UNL1       -0.2716
     16 C         144.3406  138.7409  155.4294 C.3     1  UNL1        0.0897
     17 C         144.6391  140.1798  155.7303 C.3     1  UNL1        0.0904
     18 C         143.1145  136.5269  156.0166 C.3     1  UNL1        0.0577
     19 C         141.7433  135.9758  156.2738 C.3     1  UNL1        0.0173
     20 C         144.1871  135.6392  155.4586 C.3     1  UNL1        0.0173
     21 S         140.6512  143.9789  164.5143 S.O2    1  UNL1        0.0781
     22 O         139.2230  144.4236  164.6253 O.2     1  UNL1       -0.1498
     23 O         142.0794  143.5342  164.4033 O.2     1  UNL1       -0.1498
     24 C         139.7635  141.5374  164.4769 C.ar    1  UNL1        0.2444
     25 N         139.4242  140.2674  165.1992 N.ar    1  UNL1       -0.2090
     26 C         139.6333  140.1686  166.6812 C.ar    1  UNL1        0.1018
     27 C         140.1817  141.3399  167.4410 C.ar    1  UNL1        0.0166
     28 C         140.5209  142.6100  166.7187 C.ar    1  UNL1        0.0262
     29 C         140.3119  142.7087  165.2366 C.ar    1  UNL1        0.1780
     30 C         140.3907  141.2411  168.9231 C.2     1  UNL1       -0.0200
     31 C         139.8276  140.0777  169.6841 C.2     1  UNL1        0.0015
     32 C         140.0366  139.9789  171.1661 C.3     1  UNL1        0.1680
     33 O         140.8089  141.0436  171.8872 O.3     1  UNL1       -0.3487
     34 C         141.3721  142.2071  171.1262 C.3     1  UNL1        0.1473
     35 C         141.1630  142.3058  169.6442 C.3     1  UNL1        0.0582
     36 C         140.5831  141.0828  162.0537 C.3     1  UNL1        0.2543
     37 O         139.5544  141.6362  162.9948 O.3     1  UNL1       -0.4552
@<TRIPOS>BOND
     1    36    37    1
     2    37    24    1
     3    24    25   ar
     4    25    26   ar
     5    26    27   ar
     6    27    30    1
     7    30    31    2
     8    31    32    1
     9    32    33    1
    10    33    34    1
    11    34    35    1
    12    27    28   ar
    13    28    29   ar
    14    29    21    1
    15    21    22    2
    16    21    23    2
    17    21     1    1
    18     1     3    1
    19     3     4   ar
    20     4     5   ar
    21     5     6   ar
    22     6     7   ar
    23     7     9    1
    24     9    10    3
    25    10    11    1
    26    11    12    1
    27    12    13    1
    28    13    14    1
    29    14    15    1
    30    15    18    1
    31    18    19    1
    32    18    20    1
    33    15    16    1
    34    16    17    1
    35     7     8   ar
    36    29    24   ar
    37     8     3   ar
    38    35    30    1
    39    17    12    1
    40     1     2    1
@<TRIPOS>MOLECULE
*****
 37 40 0 0 0
SMALL
GASTEIGER

@<TRIPOS>ATOM
      1 N         140.4003  142.1035  161.8302 N.pl3   1  UNL1       -0.2133
      2 H         140.3871  143.0785  161.6945 H       1  UNL1        0.1738
      3 C         139.9040  141.1890  160.7498 C.ar    1  UNL1        0.0845
      4 C         138.4534  141.1966  160.3684 C.ar    1  UNL1        0.1147
      5 N         137.9571  140.2821  159.2879 N.ar    1  UNL1       -0.2403
      6 C         138.9115  139.3600  158.5888 C.ar    1  UNL1        0.1071
      7 C         140.3623  139.3524  158.9701 C.ar    1  UNL1        0.0621
      8 C         140.8586  140.2669  160.0506 C.ar    1  UNL1        0.0272
      9 C         141.3167  138.4304  158.2710 C.1     1  UNL1       -0.0614
     10 C         142.2711  137.5083  157.5719 C.1     1  UNL1       -0.0684
     11 C         143.2256  136.5862  156.8727 C.3     1  UNL1        0.1502
     12 N         142.7879  135.2036  156.4896 N.3     1  UNL1       -0.2591
     13 C         141.7335  135.0147  155.4395 C.3     1  UNL1        0.0904
     14 C         141.2958  133.6320  155.0564 C.3     1  UNL1        0.0897
     15 N         141.9126  132.4383  155.7234 N.3     1  UNL1       -0.2716
     16 C         142.9670  132.6273  156.7733 C.3     1  UNL1        0.0897
     17 C         143.4047  134.0099  157.1564 C.3     1  UNL1        0.0904
     18 C         141.4749  131.0557  155.3403 C.3     1  UNL1        0.0577
     19 C         140.1899  130.8560  154.5925 C.3     1  UNL1        0.0173
     20 C         142.3220  129.8728  155.7050 C.3     1  UNL1        0.0173
     21 S         140.9167  141.5325  163.1176 S.O2    1  UNL1        0.0781
     22 O         139.5401  141.0385  163.4506 O.2     1  UNL1       -0.1498
     23 O         142.2933  142.0265  162.7845 O.2     1  UNL1       -0.1498
     24 C         141.9722  139.5622  164.4419 C.ar    1  UNL1        0.2444
     25 N         142.4886  138.9913  165.7293 N.ar    1  UNL1       -0.2090
     26 C         142.4661  139.8196  166.9796 C.ar    1  UNL1        0.1018
     27 C         141.9271  141.2189  166.9426 C.ar    1  UNL1        0.0166
     28 C         141.4106  141.7899  165.6553 C.ar    1  UNL1        0.0262
     29 C         141.4332  140.9615  164.4049 C.ar    1  UNL1        0.1780
     30 C         141.9045  142.0473  168.1929 C.2     1  UNL1       -0.0200
     31 C         143.1114  142.0959  169.0823 C.2     1  UNL1        0.0015
     32 C         143.0888  142.9242  170.3326 C.3     1  UNL1        0.1680
     33 O         141.8594  143.7040  170.6936 O.3     1  UNL1       -0.3487
     34 C         140.6525  143.6553  169.8043 C.3     1  UNL1        0.1473
     35 C         140.6750  142.8270  168.5539 C.3     1  UNL1        0.0582
     36 C         140.9353  137.6978  162.9591 C.3     1  UNL1        0.2543
     37 O         141.9947  138.7339  163.1916 O.3     1  UNL1       -0.4552
@<TRIPOS>BOND
     1    36    37    1
     2    37    24    1
     3    24    25   ar
     4    25    26   ar
     5    26    27   ar
     6    27    30    1
     7    30    31    2
     8    31    32    1
     9    32    33    1
    10    33    34    1
    11    34    35    1
    12    27    28   ar
    13    28    29   ar
    14    29    21    1
    15    21    22    2
    16    21    23    2
    17    21     1    1
    18     1     3    1
    19     3     4   ar
    20     4     5   ar
    21     5     6   ar
    22     6     7   ar
    23     7     9    1
    24     9    10    3
    25    10    11    1
    26    11    12    1
    27    12    13    1
    28    13    14    1
    29    14    15    1
    30    15    18    1
    31    18    19    1
    32    18    20    1
    33    15    16    1
    34    16    17    1
    35     7     8   ar
    36    29    24   ar
    37     8     3   ar
    38    35    30    1
    39    17    12    1
    40     1     2    1
@<TRIPOS>MOLECULE
*****
 37 40 0 0 0
SMALL
GASTEIGER

@<TRIPOS>ATOM
      1 N         138.5267  138.8927  162.0875 N.pl3   1  UNL1       -0.2133
      2 H         138.1121  138.0336  162.3312 H       1  UNL1        0.1738
      3 C         138.6697  139.2737  160.6438 C.ar    1  UNL1        0.0845
      4 C         138.0126  140.5197  160.1283 C.ar    1  UNL1        0.1147
      5 N         138.1556  140.9007  158.6846 N.ar    1  UNL1       -0.2403
      6 C         138.9557  140.0357  157.7563 C.ar    1  UNL1        0.1071
      7 C         139.6128  138.7897  158.2718 C.ar    1  UNL1        0.0621
      8 C         139.4698  138.4087  159.7155 C.ar    1  UNL1        0.0272
      9 C         140.4129  137.9247  157.3435 C.1     1  UNL1       -0.0614
     10 C         141.2129  137.0598  156.4153 C.1     1  UNL1       -0.0684
     11 C         142.0130  136.1948  155.4870 C.3     1  UNL1        0.1502
     12 N         142.3981  134.8056  155.9015 N.3     1  UNL1       -0.2591
     13 C         143.5618  134.5937  156.8240 C.3     1  UNL1        0.0904
     14 C         143.9470  133.2045  157.2386 C.3     1  UNL1        0.0897
     15 N         143.1684  132.0272  156.7306 N.3     1  UNL1       -0.2716
     16 C         142.0048  132.2392  155.8081 C.3     1  UNL1        0.0897
     17 C         141.6197  133.6284  155.3935 C.3     1  UNL1        0.0904
     18 C         143.5536  130.6380  157.1451 C.3     1  UNL1        0.0577
     19 C         142.8721  129.4543  156.5252 C.3     1  UNL1        0.0173
     20 C         144.6202  130.4326  158.1795 C.3     1  UNL1        0.0173
     21 S         139.0153  139.8206  163.1600 S.O2    1  UNL1        0.0781
     22 O         140.4329  139.5318  162.7640 O.2     1  UNL1       -0.1498
     23 O         137.5977  140.1093  163.5560 O.2     1  UNL1       -0.1498
     24 C         139.6309  142.2168  163.9534 C.ar    1  UNL1        0.2444
     25 N         140.1194  143.1446  165.0259 N.ar    1  UNL1       -0.2090
     26 C         140.4810  142.6042  166.3777 C.ar    1  UNL1        0.1018
     27 C         140.3540  141.1359  166.6569 C.ar    1  UNL1        0.0166
     28 C         139.8655  140.2080  165.5843 C.ar    1  UNL1        0.0262
     29 C         139.5039  140.7485  164.2326 C.ar    1  UNL1        0.1780
     30 C         140.7156  140.5954  168.0086 C.2     1  UNL1       -0.0200
     31 C         142.0399  139.9228  168.2177 C.2     1  UNL1        0.0015
     32 C         142.4015  139.3823  169.5694 C.3     1  UNL1        0.1680
     33 O         141.4388  139.5146  170.7121 O.3     1  UNL1       -0.3487
     34 C         140.1145  140.1872  170.5030 C.3     1  UNL1        0.1473
     35 C         139.7529  140.7277  169.1512 C.3     1  UNL1        0.0582
     36 C         137.9758  143.4919  162.4091 C.3     1  UNL1        0.2543
     37 O         139.2693  142.7572  162.6017 O.3     1  UNL1       -0.4552
@<TRIPOS>BOND
     1    36    37    1
     2    37    24    1
     3    24    25   ar
     4    25    26   ar
     5    26    27   ar
     6    27    30    1
     7    30    31    2
     8    31    32    1
     9    32    33    1
    10    33    34    1
    11    34    35    1
    12    27    28   ar
    13    28    29   ar
    14    29    21    1
    15    21    22    2
    16    21    23    2
    17    21     1    1
    18     1     3    1
    19     3     4   ar
    20     4     5   ar
    21     5     6   ar
    22     6     7   ar
    23     7     9    1
    24     9    10    3
    25    10    11    1
    26    11    12    1
    27    12    13    1
    28    13    14    1
    29    14    15    1
    30    15    18    1
    31    18    19    1
    32    18    20    1
    33    15    16    1
    34    16    17    1
    35     7     8   ar
    36    29    24   ar
    37     8     3   ar
    38    35    30    1
    39    17    12    1
    40     1     2    1
@<TRIPOS>MOLECULE
*****
 37 40 0 0 0
SMALL
GASTEIGER

@<TRIPOS>ATOM
      1 N         142.8489  143.6115  162.9598 N.pl3   1  UNL1       -0.2133
      2 H         142.5774  144.5112  163.2531 H       1  UNL1        0.1738
      3 C         143.2284  143.3720  161.5285 C.ar    1  UNL1        0.0845
      4 C         144.5329  142.7089  161.1994 C.ar    1  UNL1        0.1147
      5 N         144.9124  142.4694  159.7681 N.ar    1  UNL1       -0.2403
      6 C         143.9874  142.8930  158.6659 C.ar    1  UNL1        0.1071
      7 C         142.6828  143.5562  158.9950 C.ar    1  UNL1        0.0621
      8 C         142.3032  143.7957  160.4263 C.ar    1  UNL1        0.0272
      9 C         141.7577  143.9798  157.8928 C.1     1  UNL1       -0.0614
     10 C         140.8327  144.4034  156.7907 C.1     1  UNL1       -0.0684
     11 C         139.9076  144.8270  155.6884 C.3     1  UNL1        0.1502
     12 N         139.7482  146.2820  155.3607 N.3     1  UNL1       -0.2591
     13 C         140.3726  146.8437  154.1178 C.3     1  UNL1        0.0904
     14 C         140.2133  148.2988  153.7901 C.3     1  UNL1        0.0897
     15 N         139.4295  149.1922  154.7054 N.3     1  UNL1       -0.2716
     16 C         138.8051  148.6305  155.9482 C.3     1  UNL1        0.0897
     17 C         138.9645  147.1755  156.2759 C.3     1  UNL1        0.0904
     18 C         139.2701  150.6472  154.3777 C.3     1  UNL1        0.0577
     19 C         138.8614  151.6165  155.4471 C.3     1  UNL1        0.0173
     20 C         139.5194  151.1331  152.9806 C.3     1  UNL1        0.0173
     21 S         142.8830  142.4802  163.9441 S.O2    1  UNL1        0.0781
     22 O         144.0868  143.0879  164.6009 O.2     1  UNL1       -0.1498
     23 O         141.6791  141.8725  163.2874 O.2     1  UNL1       -0.1498
     24 C         143.6459  140.0822  164.5904 C.ar    1  UNL1        0.2444
     25 N         143.6799  138.9509  165.5747 N.ar    1  UNL1       -0.2090
     26 C         142.9851  139.0863  166.8972 C.ar    1  UNL1        0.1018
     27 C         142.2563  140.3529  167.2353 C.ar    1  UNL1        0.0166
     28 C         142.2222  141.4842  166.2510 C.ar    1  UNL1        0.0262
     29 C         142.9170  141.3488  164.9285 C.ar    1  UNL1        0.1780
     30 C         141.5614  140.4882  168.5578 C.2     1  UNL1       -0.0200
     31 C         140.0852  140.2420  168.6581 C.2     1  UNL1        0.0015
     32 C         139.3904  140.3773  169.9805 C.3     1  UNL1        0.1680
     33 O         140.1718  140.7589  171.2027 O.3     1  UNL1       -0.3487
     34 C         141.6480  141.0052  171.1024 C.3     1  UNL1        0.1473
     35 C         142.3428  140.8698  169.7800 C.3     1  UNL1        0.0582
     36 C         143.8991  138.8962  162.2927 C.3     1  UNL1        0.2543
     37 O         144.3407  139.9469  163.2679 O.3     1  UNL1       -0.4552
@<TRIPOS>BOND
     1    36    37    1
     2    37    24    1
     3    24    25   ar
     4    25    26   ar
     5    26    27   ar
     6    27    30    1
     7    30    31    2
     8    31    32    1
     9    32    33    1
    10    33    34    1
    11    34    35    1
    12    27    28   ar
    13    28    29   ar
    14    29    21    1
    15    21    22    2
    16    21    23    2
    17    21     1    1
    18     1     3    1
    19     3     4   ar
    20     4     5   ar
    21     5     6   ar
    22     6     7   ar
    23     7     9    1
    24     9    10    3
    25    10    11    1
    26    11    12    1
    27    12    13    1
    28    13    14    1
    29    14    15    1
    30    15    18    1
    31    18    19    1
    32    18    20    1
    33    15    16    1
    34    16    17    1
    35     7     8   ar
    36    29    24   ar
    37     8     3   ar
    38    35    30    1
    39    17    12    1
    40     1     2    1
@<TRIPOS>MOLECULE
*****
 37 40 0 0 0
SMALL
GASTEIGER

@<TRIPOS>ATOM
      1 N         141.9055  144.9795  163.2144 N.pl3   1  UNL1       -0.2133
      2 H         142.2201  145.8469  163.5576 H       1  UNL1        0.1738
      3 C         141.4503  144.8568  161.7904 C.ar    1  UNL1        0.0845
      4 C         140.3050  145.6891  161.2948 C.ar    1  UNL1        0.1147
      5 N         139.8498  145.5664  159.8708 N.ar    1  UNL1       -0.2403
      6 C         140.5398  144.6115  158.9425 C.ar    1  UNL1        0.1071
      7 C         141.6851  143.7791  159.4381 C.ar    1  UNL1        0.0621
      8 C         142.1403  143.9018  160.8620 C.ar    1  UNL1        0.0272
      9 C         142.3751  142.8242  158.5097 C.1     1  UNL1       -0.0614
     10 C         143.0651  141.8692  157.5813 C.1     1  UNL1       -0.0684
     11 C         143.7552  140.9142  156.6529 C.3     1  UNL1        0.1502
     12 N         145.0779  141.2805  156.0476 N.3     1  UNL1       -0.2591
     13 C         145.3801  140.9105  154.6256 C.3     1  UNL1        0.0904
     14 C         146.7027  141.2768  154.0203 C.3     1  UNL1        0.0897
     15 N         147.7232  142.0129  154.8369 N.3     1  UNL1       -0.2716
     16 C         147.4210  142.3828  156.2588 C.3     1  UNL1        0.0897
     17 C         146.0983  142.0166  156.8641 C.3     1  UNL1        0.0904
     18 C         149.0458  142.3792  154.2315 C.3     1  UNL1        0.0577
     19 C         149.1222  143.4595  153.1936 C.3     1  UNL1        0.0173
     20 C         150.2920  141.6651  154.6640 C.3     1  UNL1        0.0173
     21 S         141.8814  143.7805  164.1154 S.O2    1  UNL1        0.0781
     22 O         140.3963  143.6740  163.9340 O.2     1  UNL1       -0.1498
     23 O         143.3665  143.8871  164.2969 O.2     1  UNL1       -0.1498
     24 C         142.1406  141.2183  164.4587 C.ar    1  UNL1        0.2444
     25 N         142.1165  140.0194  165.3597 N.ar    1  UNL1       -0.2090
     26 C         141.8092  140.1837  166.8187 C.ar    1  UNL1        0.1018
     27 C         141.5259  141.5470  167.3766 C.ar    1  UNL1        0.0166
     28 C         141.5500  142.7459  166.4755 C.ar    1  UNL1        0.0262
     29 C         141.8573  142.5815  165.0165 C.ar    1  UNL1        0.1780
     30 C         141.2185  141.7113  168.8355 C.2     1  UNL1       -0.0200
     31 C         140.2129  142.7317  169.2798 C.2     1  UNL1        0.0015
     32 C         139.9055  142.8960  170.7387 C.3     1  UNL1        0.1680
     33 O         140.6038  142.0400  171.7534 O.3     1  UNL1       -0.3487
     34 C         141.6095  141.0196  171.3091 C.3     1  UNL1        0.1473
     35 C         141.9168  140.8553  169.8501 C.3     1  UNL1        0.0582
     36 C         143.8526  140.7704  162.5565 C.3     1  UNL1        0.2543
     37 O         142.4480  141.0540  162.9997 O.3     1  UNL1       -0.4552
@<TRIPOS>BOND
     1    36    37    1
     2    37    24    1
     3    24    25   ar
     4    25    26   ar
     5    26    27   ar
     6    27    30    1
     7    30    31    2
     8    31    32    1
     9    32    33    1
    10    33    34    1
    11    34    35    1
    12    27    28   ar
    13    28    29   ar
    14    29    21    1
    15    21    22    2
    16    21    23    2
    17    21     1    1
    18     1     3    1
    19     3     4   ar
    20     4     5   ar
    21     5     6   ar
    22     6     7   ar
    23     7     9    1
    24     9    10    3
    25    10    11    1
    26    11    12    1
    27    12    13    1
    28    13    14    1
    29    14    15    1
    30    15    18    1
    31    18    19    1
    32    18    20    1
    33    15    16    1
    34    16    17    1
    35     7     8   ar
    36    29    24   ar
    37     8     3   ar
    38    35    30    1
    39    17    12    1
    40     1     2    1
