@<TRIPOS>MOLECULE
*****
 31 34 0 0 0
SMALL
GASTEIGER

@<TRIPOS>ATOM
      1 C         139.9114  140.6422  168.2031 C.ar    1  UNL1        0.0327
      2 C         139.8141  140.6445  166.7063 C.ar    1  UNL1        0.0044
      3 C         138.7596  139.8261  166.0220 C.ar    1  UNL1        0.0193
      4 C         137.8025  139.0054  166.8345 C.ar    1  UNL1        0.1002
      5 N         137.8998  139.0030  168.3313 N.ar    1  UNL1       -0.2296
      6 C         138.9543  139.8214  169.0156 C.ar    1  UNL1        0.1254
      7 N         139.0516  139.8191  170.5125 N.pl3   1  UNL1       -0.3426
      8 H         138.4234  139.2804  171.0458 H       1  UNL1        0.1437
      9 H         139.7437  140.3562  170.9617 H       1  UNL1        0.1437
     10 C         143.0749  143.0974  170.2560 C.ar    1  UNL1        0.2250
     11 C         143.4315  141.7754  169.6436 C.ar    1  UNL1        0.0577
     12 C         142.3770  140.9570  168.9593 C.ar    1  UNL1        0.0064
     13 C         140.9659  141.4606  168.8874 C.ar    1  UNL1        0.0221
     14 C         140.6093  142.7826  169.4998 C.ar    1  UNL1        0.1021
     15 N         141.6638  143.6010  170.1841 N.ar    1  UNL1       -0.2101
     16 C         145.5719  143.7443  170.5666 C.3     1  UNL1        0.2542
     17 O         144.1294  143.9158  170.9403 O.3     1  UNL1       -0.4561
     18 C         138.6623  139.8284  164.5251 C.ar    1  UNL1        0.0016
     19 C         137.9312  140.9339  163.8228 C.ar    1  UNL1        0.0014
     20 C         137.8339  140.9363  162.3259 C.ar    1  UNL1        0.0199
     21 C         138.4677  139.8331  161.5314 C.ar    1  UNL1        0.1219
     22 C         139.1989  138.7276  162.2338 C.ar    1  UNL1        0.0199
     23 C         139.2961  138.7253  163.7306 C.ar    1  UNL1        0.0014
     24 S         138.3704  139.8354  160.0346 S.O2    1  UNL1        0.0602
     25 O         139.8545  140.0309  159.9385 O.2     1  UNL1       -0.1530
     26 O         136.8864  139.6399  160.1308 O.2     1  UNL1       -0.1530
     27 N         138.2732  139.8377  158.5378 N.3     1  UNL1       -0.1808
     28 H         137.4183  139.3359  158.2975 H       1  UNL1        0.1487
     29 C         138.2366  141.1379  157.7906 C.3     1  UNL1        0.0756
     30 C         138.9472  142.3323  157.2265 C.3     1  UNL1        0.0188
     31 C         137.4627  142.1952  157.0605 C.3     1  UNL1        0.0188
@<TRIPOS>BOND
     1    16    17    1
     2    17    10    1
     3    10    11   ar
     4    11    12   ar
     5    12    13   ar
     6    13     1    1
     7     1     2   ar
     8     2     3   ar
     9     3    18    1
    10    18    19   ar
    11    19    20   ar
    12    20    21   ar
    13    21    24    1
    14    24    25    2
    15    24    26    2
    16    24    27    1
    17    27    29    1
    18    29    30    1
    19    30    31    1
    20    21    22   ar
    21    22    23   ar
    22     3     4   ar
    23     4     5   ar
    24     5     6   ar
    25     6     7    1
    26    13    14   ar
    27    14    15   ar
    28    15    10   ar
    29     6     1   ar
    30    23    18   ar
    31    31    29    1
    32    27    28    1
    33     7     8    1
    34     7     9    1
@<TRIPOS>MOLECULE
*****
 31 34 0 0 0
SMALL
GASTEIGER

@<TRIPOS>ATOM
      1 C         138.7821  140.9851  163.7769 C.ar    1  UNL1        0.0327
      2 C         139.5091  140.2079  162.7199 C.ar    1  UNL1        0.0044
      3 C         139.3171  140.5498  161.2720 C.ar    1  UNL1        0.0193
      4 C         138.3980  141.6689  160.8812 C.ar    1  UNL1        0.1002
      5 N         137.6709  142.4461  161.9382 N.ar    1  UNL1       -0.2296
      6 C         137.8630  142.1042  163.3860 C.ar    1  UNL1        0.1254
      7 N         137.1358  142.8815  164.4430 N.pl3   1  UNL1       -0.3426
      8 H         136.5326  143.6160  164.1865 H       1  UNL1        0.1437
      9 H         137.2619  142.6571  165.3933 H       1  UNL1        0.1437
     10 C         139.3582  139.9595  168.1204 C.ar    1  UNL1        0.2250
     11 C         138.4169  139.1513  167.2774 C.ar    1  UNL1        0.0577
     12 C         138.2249  139.4932  165.8295 C.ar    1  UNL1        0.0064
     13 C         138.9741  140.6432  165.2247 C.ar    1  UNL1        0.0221
     14 C         139.9154  141.4514  166.0677 C.ar    1  UNL1        0.1021
     15 N         140.1075  141.1096  167.5155 N.ar    1  UNL1       -0.2101
     16 C         140.7929  140.0571  170.2842 C.3     1  UNL1        0.2542
     17 O         139.5503  139.6176  169.5682 O.3     1  UNL1       -0.4561
     18 C         140.0442  139.7725  160.2150 C.ar    1  UNL1        0.0016
     19 C         141.5413  139.6856  160.2445 C.ar    1  UNL1        0.0014
     20 C         142.2685  138.9083  159.1875 C.ar    1  UNL1        0.0199
     21 C         141.4983  138.2180  158.1010 C.ar    1  UNL1        0.1219
     22 C         140.0011  138.3050  158.0716 C.ar    1  UNL1        0.0199
     23 C         139.2741  139.0822  159.1285 C.ar    1  UNL1        0.0014
     24 S         142.2254  137.4407  157.0440 S.O2    1  UNL1        0.0602
     25 O         143.5064  138.1224  157.4239 O.2     1  UNL1       -0.1530
     26 O         140.9444  136.7591  156.6642 O.2     1  UNL1       -0.1530
     27 N         142.9524  136.6635  155.9871 N.3     1  UNL1       -0.1808
     28 H         143.8080  137.1784  155.7791 H       1  UNL1        0.1487
     29 C         143.3546  135.2416  156.2449 C.3     1  UNL1        0.0756
     30 C         143.7481  133.8891  155.7294 C.3     1  UNL1        0.0188
     31 C         143.6575  134.1314  157.2070 C.3     1  UNL1        0.0188
@<TRIPOS>BOND
     1    16    17    1
     2    17    10    1
     3    10    11   ar
     4    11    12   ar
     5    12    13   ar
     6    13     1    1
     7     1     2   ar
     8     2     3   ar
     9     3    18    1
    10    18    19   ar
    11    19    20   ar
    12    20    21   ar
    13    21    24    1
    14    24    25    2
    15    24    26    2
    16    24    27    1
    17    27    29    1
    18    29    30    1
    19    30    31    1
    20    21    22   ar
    21    22    23   ar
    22     3     4   ar
    23     4     5   ar
    24     5     6   ar
    25     6     7    1
    26    13    14   ar
    27    14    15   ar
    28    15    10   ar
    29     6     1   ar
    30    23    18   ar
    31    31    29    1
    32    27    28    1
    33     7     8    1
    34     7     9    1
@<TRIPOS>MOLECULE
*****
 31 34 0 0 0
SMALL
GASTEIGER

@<TRIPOS>ATOM
      1 C         142.7404  136.7824  156.6781 C.ar    1  UNL1        0.0327
      2 C         141.8111  137.5533  157.5681 C.ar    1  UNL1        0.0044
      3 C         142.0318  139.0199  157.7923 C.ar    1  UNL1        0.0193
      4 C         143.1818  139.7157  157.1265 C.ar    1  UNL1        0.1002
      5 N         144.1111  138.9448  156.2365 N.ar    1  UNL1       -0.2296
      6 C         143.8904  137.4782  156.0123 C.ar    1  UNL1        0.1254
      7 N         144.8198  136.7074  155.1222 N.pl3   1  UNL1       -0.3426
      8 H         145.5746  137.1641  154.6853 H       1  UNL1        0.1437
      9 H         144.6749  135.7448  154.9750 H       1  UNL1        0.1437
     10 C         142.0782  132.3825  156.0054 C.ar    1  UNL1        0.2250
     11 C         141.4202  133.3862  155.1056 C.ar    1  UNL1        0.0577
     12 C         141.6409  134.8528  155.3299 C.ar    1  UNL1        0.0064
     13 C         142.5197  135.3158  156.4538 C.ar    1  UNL1        0.0221
     14 C         143.1778  134.3121  157.3535 C.ar    1  UNL1        0.1021
     15 N         142.9570  132.8455  157.1293 N.ar    1  UNL1       -0.2101
     16 C         140.8178  130.4548  154.8033 C.3     1  UNL1        0.2542
     17 O         141.8575  130.9159  155.7811 O.3     1  UNL1       -0.4561
     18 C         141.1024  139.7907  158.6823 C.ar    1  UNL1        0.0016
     19 C         141.1876  141.2872  158.7393 C.ar    1  UNL1        0.0014
     20 C         140.2583  142.0580  159.6294 C.ar    1  UNL1        0.0199
     21 C         139.2437  141.3323  160.4624 C.ar    1  UNL1        0.1219
     22 C         139.1584  139.8358  160.4054 C.ar    1  UNL1        0.0199
     23 C         140.0878  139.0650  159.5154 C.ar    1  UNL1        0.0014
     24 S         138.3143  142.1031  161.3525 S.O2    1  UNL1        0.0602
     25 O         138.1391  140.8913  162.2189 O.2     1  UNL1       -0.1530
     26 O         138.4895  143.3149  160.4860 O.2     1  UNL1       -0.1530
     27 N         137.3850  142.8738  162.2425 N.3     1  UNL1       -0.1808
     28 H         136.7619  142.1934  162.6775 H       1  UNL1        0.1487
     29 C         137.9379  143.7234  163.3481 C.3     1  UNL1        0.0756
     30 C         137.8264  144.2855  164.7343 C.3     1  UNL1        0.0188
     31 C         139.0071  144.6329  163.8769 C.3     1  UNL1        0.0188
@<TRIPOS>BOND
     1    16    17    1
     2    17    10    1
     3    10    11   ar
     4    11    12   ar
     5    12    13   ar
     6    13     1    1
     7     1     2   ar
     8     2     3   ar
     9     3    18    1
    10    18    19   ar
    11    19    20   ar
    12    20    21   ar
    13    21    24    1
    14    24    25    2
    15    24    26    2
    16    24    27    1
    17    27    29    1
    18    29    30    1
    19    30    31    1
    20    21    22   ar
    21    22    23   ar
    22     3     4   ar
    23     4     5   ar
    24     5     6   ar
    25     6     7    1
    26    13    14   ar
    27    14    15   ar
    28    15    10   ar
    29     6     1   ar
    30    23    18   ar
    31    31    29    1
    32    27    28    1
    33     7     8    1
    34     7     9    1
@<TRIPOS>MOLECULE
*****
 31 34 0 0 0
SMALL
GASTEIGER

@<TRIPOS>ATOM
      1 C         140.7344  139.1296  163.4646 C.ar    1  UNL1        0.0327
      2 C         141.3426  139.9472  164.5653 C.ar    1  UNL1        0.0044
      3 C         140.6604  140.0362  165.8982 C.ar    1  UNL1        0.0193
      4 C         139.3700  139.3077  166.1304 C.ar    1  UNL1        0.1002
      5 N         138.7618  138.4901  165.0298 N.ar    1  UNL1       -0.2296
      6 C         139.4440  138.4010  163.6968 C.ar    1  UNL1        0.1254
      7 N         138.8357  137.5833  162.5961 N.pl3   1  UNL1       -0.3426
      8 H         137.9887  137.1052  162.7486 H       1  UNL1        0.1437
      9 H         139.2834  137.5249  161.7213 H       1  UNL1        0.1437
     10 C         142.7809  138.8625  159.4658 C.ar    1  UNL1        0.2250
     11 C         142.9599  137.7669  160.4746 C.ar    1  UNL1        0.0577
     12 C         142.2777  137.8560  161.8076 C.ar    1  UNL1        0.0064
     13 C         141.4166  139.0405  162.1317 C.ar    1  UNL1        0.0221
     14 C         141.2376  140.1361  161.1229 C.ar    1  UNL1        0.1021
     15 N         141.9197  140.0470  159.7899 N.ar    1  UNL1       -0.2101
     16 C         142.8376  137.9839  157.0215 C.3     1  UNL1        0.2542
     17 O         143.4631  138.7734  158.1329 O.3     1  UNL1       -0.4561
     18 C         141.2687  140.8539  166.9989 C.ar    1  UNL1        0.0016
     19 C         140.4635  141.1842  168.2206 C.ar    1  UNL1        0.0014
     20 C         141.0718  142.0019  169.3213 C.ar    1  UNL1        0.0199
     21 C         142.4853  142.4892  169.2002 C.ar    1  UNL1        0.1219
     22 C         143.2904  142.1589  167.9784 C.ar    1  UNL1        0.0199
     23 C         142.6821  141.3413  166.8778 C.ar    1  UNL1        0.0014
     24 S         143.0936  143.3068  170.3009 S.O2    1  UNL1        0.0602
     25 O         144.4381  142.7154  169.9971 O.2     1  UNL1       -0.1530
     26 O         141.7490  143.8983  170.6046 O.2     1  UNL1       -0.1530
     27 N         143.7018  144.1245  171.4015 N.3     1  UNL1       -0.1808
     28 H         143.6224  143.5734  172.2561 H       1  UNL1        0.1487
     29 C         145.1313  144.5683  171.3038 C.3     1  UNL1        0.0756
     30 C         146.5648  144.2700  170.9781 C.3     1  UNL1        0.0188
     31 C         146.1738  145.6354  171.4605 C.3     1  UNL1        0.0188
@<TRIPOS>BOND
     1    16    17    1
     2    17    10    1
     3    10    11   ar
     4    11    12   ar
     5    12    13   ar
     6    13     1    1
     7     1     2   ar
     8     2     3   ar
     9     3    18    1
    10    18    19   ar
    11    19    20   ar
    12    20    21   ar
    13    21    24    1
    14    24    25    2
    15    24    26    2
    16    24    27    1
    17    27    29    1
    18    29    30    1
    19    30    31    1
    20    21    22   ar
    21    22    23   ar
    22     3     4   ar
    23     4     5   ar
    24     5     6   ar
    25     6     7    1
    26    13    14   ar
    27    14    15   ar
    28    15    10   ar
    29     6     1   ar
    30    23    18   ar
    31    31    29    1
    32    27    28    1
    33     7     8    1
    34     7     9    1
@<TRIPOS>MOLECULE
*****
 31 34 0 0 0
SMALL
GASTEIGER

@<TRIPOS>ATOM
      1 C         140.0875  139.8034  159.3599 C.ar    1  UNL1        0.0327
      2 C         140.1813  139.8179  160.8569 C.ar    1  UNL1        0.0044
      3 C         138.9331  139.8857  161.6860 C.ar    1  UNL1        0.0193
      4 C         137.5911  139.9390  161.0181 C.ar    1  UNL1        0.1002
      5 N         137.4973  139.9245  159.5211 N.ar    1  UNL1       -0.2296
      6 C         138.7455  139.8567  158.6920 C.ar    1  UNL1        0.1254
      7 N         138.6516  139.8422  157.1950 N.pl3   1  UNL1       -0.3426
      8 H         137.7708  139.8772  156.7567 H       1  UNL1        0.1437
      9 H         139.4708  139.7977  156.6508 H       1  UNL1        0.1437
     10 C         143.8321  139.6000  156.8726 C.ar    1  UNL1        0.2250
     11 C         143.1501  140.9173  157.0950 C.ar    1  UNL1        0.0577
     12 C         141.9019  140.9851  157.9241 C.ar    1  UNL1        0.0064
     13 C         141.3357  139.7356  158.5308 C.ar    1  UNL1        0.0221
     14 C         142.0177  138.4183  158.3084 C.ar    1  UNL1        0.1021
     15 N         143.2659  138.3505  157.4793 N.ar    1  UNL1       -0.2101
     16 C         145.2215  140.4000  154.8283 C.3     1  UNL1        0.2542
     17 O         145.0803  139.5322  156.0435 O.3     1  UNL1       -0.4561
     18 C         139.0270  139.9002  163.1830 C.ar    1  UNL1        0.0016
     19 C         139.3284  141.1810  163.9032 C.ar    1  UNL1        0.0014
     20 C         139.4222  141.1955  165.4002 C.ar    1  UNL1        0.0199
     21 C         139.2148  139.9292  166.1770 C.ar    1  UNL1        0.1219
     22 C         138.9134  138.6483  165.4567 C.ar    1  UNL1        0.0199
     23 C         138.8195  138.6339  163.9598 C.ar    1  UNL1        0.0014
     24 S         139.3086  139.9436  167.6740 S.O2    1  UNL1        0.0602
     25 O         140.3704  141.0003  167.5972 O.2     1  UNL1       -0.1530
     26 O         138.2468  138.8869  167.7507 O.2     1  UNL1       -0.1530
     27 N         139.4025  139.9581  169.1709 N.3     1  UNL1       -0.1808
     28 H         138.8885  139.1433  169.5061 H       1  UNL1        0.1487
     29 C         140.7454  139.9275  169.8385 C.3     1  UNL1        0.0756
     30 C         142.0801  139.2742  170.0426 C.3     1  UNL1        0.0188
     31 C         141.7366  140.5280  170.7908 C.3     1  UNL1        0.0188
@<TRIPOS>BOND
     1    16    17    1
     2    17    10    1
     3    10    11   ar
     4    11    12   ar
     5    12    13   ar
     6    13     1    1
     7     1     2   ar
     8     2     3   ar
     9     3    18    1
    10    18    19   ar
    11    19    20   ar
    12    20    21   ar
    13    21    24    1
    14    24    25    2
    15    24    26    2
    16    24    27    1
    17    27    29    1
    18    29    30    1
    19    30    31    1
    20    21    22   ar
    21    22    23   ar
    22     3     4   ar
    23     4     5   ar
    24     5     6   ar
    25     6     7    1
    26    13    14   ar
    27    14    15   ar
    28    15    10   ar
    29     6     1   ar
    30    23    18   ar
    31    31    29    1
    32    27    28    1
    33     7     8    1
    34     7     9    1
@<TRIPOS>MOLECULE
*****
 31 34 0 0 0
SMALL
GASTEIGER

@<TRIPOS>ATOM
      1 C         140.2303  143.0071  164.4813 C.ar    1  UNL1        0.0327
      2 C         141.0812  142.4966  163.3564 C.ar    1  UNL1        0.0044
      3 C         141.2407  143.3114  162.1072 C.ar    1  UNL1        0.0193
      4 C         140.5495  144.6368  161.9828 C.ar    1  UNL1        0.1002
      5 N         139.6986  145.1473  163.1077 N.ar    1  UNL1       -0.2296
      6 C         139.5390  144.3325  164.3569 C.ar    1  UNL1        0.1254
      7 N         138.6881  144.8431  165.4818 N.pl3   1  UNL1       -0.3426
      8 H         138.2344  145.7129  165.4001 H       1  UNL1        0.1437
      9 H         138.5833  144.3083  166.3017 H       1  UNL1        0.1437
     10 C         139.7515  140.5626  168.2290 C.ar    1  UNL1        0.2250
     11 C         140.5367  141.8402  168.2621 C.ar    1  UNL1        0.0577
     12 C         140.6962  142.6551  167.0129 C.ar    1  UNL1        0.0064
     13 C         140.0707  142.1923  165.7305 C.ar    1  UNL1        0.0221
     14 C         139.2856  140.9146  165.6974 C.ar    1  UNL1        0.1021
     15 N         139.1260  140.0998  166.9466 N.ar    1  UNL1       -0.2101
     16 C         140.3364  140.1298  170.7231 C.3     1  UNL1        0.2542
     17 O         139.5919  139.7478  169.4782 O.3     1  UNL1       -0.4561
     18 C         142.0917  142.8008  160.9823 C.ar    1  UNL1        0.0016
     19 C         141.4506  142.1499  159.7927 C.ar    1  UNL1        0.0014
     20 C         142.3015  141.6393  158.6678 C.ar    1  UNL1        0.0199
     21 C         143.7935  141.7797  158.7326 C.ar    1  UNL1        0.1219
     22 C         144.4346  142.4307  159.9223 C.ar    1  UNL1        0.0199
     23 C         143.5837  142.9412  161.0471 C.ar    1  UNL1        0.0014
     24 S         144.6445  141.2692  157.6078 S.O2    1  UNL1        0.0602
     25 O         144.7203  142.6541  157.0366 O.2     1  UNL1       -0.1530
     26 O         144.5686  139.8843  158.1790 O.2     1  UNL1       -0.1530
     27 N         145.4954  140.7586  156.4830 N.3     1  UNL1       -0.1808
     28 H         144.8643  140.5405  155.7119 H       1  UNL1        0.1487
     29 C         146.5875  141.6183  155.9188 C.3     1  UNL1        0.0756
     30 C         147.0958  142.5351  154.8460 C.3     1  UNL1        0.0188
     31 C         147.9708  142.1904  156.0145 C.3     1  UNL1        0.0188
@<TRIPOS>BOND
     1    16    17    1
     2    17    10    1
     3    10    11   ar
     4    11    12   ar
     5    12    13   ar
     6    13     1    1
     7     1     2   ar
     8     2     3   ar
     9     3    18    1
    10    18    19   ar
    11    19    20   ar
    12    20    21   ar
    13    21    24    1
    14    24    25    2
    15    24    26    2
    16    24    27    1
    17    27    29    1
    18    29    30    1
    19    30    31    1
    20    21    22   ar
    21    22    23   ar
    22     3     4   ar
    23     4     5   ar
    24     5     6   ar
    25     6     7    1
    26    13    14   ar
    27    14    15   ar
    28    15    10   ar
    29     6     1   ar
    30    23    18   ar
    31    31    29    1
    32    27    28    1
    33     7     8    1
    34     7     9    1
@<TRIPOS>MOLECULE
*****
 31 34 0 0 0
SMALL
GASTEIGER

@<TRIPOS>ATOM
      1 C         139.7344  139.5656  164.8093 C.ar    1  UNL1        0.0327
      2 C         139.9991  140.6831  163.8444 C.ar    1  UNL1        0.0044
      3 C         139.5245  140.5770  162.4254 C.ar    1  UNL1        0.0193
      4 C         138.7853  139.3534  161.9713 C.ar    1  UNL1        0.1002
      5 N         138.5205  138.2359  162.9362 N.ar    1  UNL1       -0.2296
      6 C         138.9951  138.3420  164.3552 C.ar    1  UNL1        0.1254
      7 N         138.7304  137.2244  165.3200 N.pl3   1  UNL1       -0.3426
      8 H         138.2452  136.4213  165.0220 H       1  UNL1        0.1437
      9 H         139.0419  137.2940  166.2514 H       1  UNL1        0.1437
     10 C         141.1582  139.8837  169.0662 C.ar    1  UNL1        0.2250
     11 C         142.1529  139.7728  167.9490 C.ar    1  UNL1        0.0577
     12 C         141.6783  139.6667  166.5300 C.ar    1  UNL1        0.0064
     13 C         140.2090  139.6716  166.2283 C.ar    1  UNL1        0.0221
     14 C         139.2143  139.7825  167.3455 C.ar    1  UNL1        0.1021
     15 N         139.6889  139.8886  168.7644 N.ar    1  UNL1       -0.2101
     16 C         141.7381  141.3340  171.1423 C.3     1  UNL1        0.2542
     17 O         141.6327  139.9898  170.4852 O.3     1  UNL1       -0.4561
     18 C         139.7893  141.6946  161.4605 C.ar    1  UNL1        0.0016
     19 C         140.8161  142.7386  161.7855 C.ar    1  UNL1        0.0014
     20 C         141.0809  143.8562  160.8206 C.ar    1  UNL1        0.0199
     21 C         140.3187  143.9298  159.5307 C.ar    1  UNL1        0.1219
     22 C         139.2918  142.8857  159.2058 C.ar    1  UNL1        0.0199
     23 C         139.0271  141.7682  160.1706 C.ar    1  UNL1        0.0014
     24 S         140.5834  145.0473  158.5659 S.O2    1  UNL1        0.0602
     25 O         141.4401  144.1326  157.7415 O.2     1  UNL1       -0.1530
     26 O         139.7268  145.9619  159.3902 O.2     1  UNL1       -0.1530
     27 N         140.8481  146.1648  157.6010 N.3     1  UNL1       -0.1808
     28 H         141.6791  145.9046  157.0698 H       1  UNL1        0.1487
     29 C         139.8005  146.5567  156.6016 C.3     1  UNL1        0.0756
     30 C         138.7272  146.1730  155.6265 C.3     1  UNL1        0.0188
     31 C         139.0593  147.6193  155.8456 C.3     1  UNL1        0.0188
@<TRIPOS>BOND
     1    16    17    1
     2    17    10    1
     3    10    11   ar
     4    11    12   ar
     5    12    13   ar
     6    13     1    1
     7     1     2   ar
     8     2     3   ar
     9     3    18    1
    10    18    19   ar
    11    19    20   ar
    12    20    21   ar
    13    21    24    1
    14    24    25    2
    15    24    26    2
    16    24    27    1
    17    27    29    1
    18    29    30    1
    19    30    31    1
    20    21    22   ar
    21    22    23   ar
    22     3     4   ar
    23     4     5   ar
    24     5     6   ar
    25     6     7    1
    26    13    14   ar
    27    14    15   ar
    28    15    10   ar
    29     6     1   ar
    30    23    18   ar
    31    31    29    1
    32    27    28    1
    33     7     8    1
    34     7     9    1
@<TRIPOS>MOLECULE
*****
 31 34 0 0 0
SMALL
GASTEIGER

@<TRIPOS>ATOM
      1 C         140.2894  139.8004  166.2034 C.ar    1  UNL1        0.0327
      2 C         140.7948  139.6598  164.7981 C.ar    1  UNL1        0.0044
      3 C         140.0380  138.8239  163.8090 C.ar    1  UNL1        0.0193
      4 C         138.7757  138.1286  164.2251 C.ar    1  UNL1        0.1002
      5 N         138.2703  138.2691  165.6303 N.ar    1  UNL1       -0.2296
      6 C         139.0271  139.1050  166.6195 C.ar    1  UNL1        0.1254
      7 N         138.5216  139.2456  168.0248 N.pl3   1  UNL1       -0.3426
      8 H         137.6932  138.7892  168.2979 H       1  UNL1        0.1437
      9 H         139.0184  139.7942  168.6740 H       1  UNL1        0.1437
     10 C         142.5599  142.3081  169.1709 C.ar    1  UNL1        0.2250
     11 C         142.9933  140.8994  168.8925 C.ar    1  UNL1        0.0577
     12 C         142.2364  140.0635  167.9033 C.ar    1  UNL1        0.0064
     13 C         141.0462  140.6363  167.1925 C.ar    1  UNL1        0.0221
     14 C         140.6129  142.0451  167.4709 C.ar    1  UNL1        0.1021
     15 N         141.3697  142.8810  168.4601 N.ar    1  UNL1       -0.2101
     16 C         144.8040  142.9947  170.2856 C.3     1  UNL1        0.2542
     17 O         143.3168  143.1440  170.1600 O.3     1  UNL1       -0.4561
     18 C         140.5434  138.6833  162.4037 C.ar    1  UNL1        0.0016
     19 C         141.8581  138.0098  162.1434 C.ar    1  UNL1        0.0014
     20 C         142.3636  137.8692  160.7381 C.ar    1  UNL1        0.0199
     21 C         141.5543  138.4023  159.5931 C.ar    1  UNL1        0.1219
     22 C         140.2395  139.0758  159.8535 C.ar    1  UNL1        0.0199
     23 C         139.7341  139.2164  161.2587 C.ar    1  UNL1        0.0014
     24 S         142.0597  138.2617  158.1879 S.O2    1  UNL1        0.0602
     25 O         143.4398  138.6277  158.6476 O.2     1  UNL1       -0.1530
     26 O         140.6797  137.8957  157.7281 O.2     1  UNL1       -0.1530
     27 N         142.5651  138.1212  156.7826 N.3     1  UNL1       -0.1808
     28 H         143.3758  138.7345  156.6986 H       1  UNL1        0.1487
     29 C         142.9844  136.7763  156.2673 C.3     1  UNL1        0.0756
     30 C         142.6637  135.3416  155.9696 C.3     1  UNL1        0.0188
     31 C         144.0312  135.8817  155.6725 C.3     1  UNL1        0.0188
@<TRIPOS>BOND
     1    16    17    1
     2    17    10    1
     3    10    11   ar
     4    11    12   ar
     5    12    13   ar
     6    13     1    1
     7     1     2   ar
     8     2     3   ar
     9     3    18    1
    10    18    19   ar
    11    19    20   ar
    12    20    21   ar
    13    21    24    1
    14    24    25    2
    15    24    26    2
    16    24    27    1
    17    27    29    1
    18    29    30    1
    19    30    31    1
    20    21    22   ar
    21    22    23   ar
    22     3     4   ar
    23     4     5   ar
    24     5     6   ar
    25     6     7    1
    26    13    14   ar
    27    14    15   ar
    28    15    10   ar
    29     6     1   ar
    30    23    18   ar
    31    31    29    1
    32    27    28    1
    33     7     8    1
    34     7     9    1
@<TRIPOS>MOLECULE
*****
 31 34 0 0 0
SMALL
GASTEIGER

@<TRIPOS>ATOM
      1 C         142.7552  142.6165  161.7913 C.ar    1  UNL1        0.0327
      2 C         142.8672  141.3825  160.9460 C.ar    1  UNL1        0.0044
      3 C         142.7543  141.4829  159.4536 C.ar    1  UNL1        0.0193
      4 C         142.5294  142.8173  158.8066 C.ar    1  UNL1        0.1002
      5 N         142.4173  144.0513  159.6519 N.ar    1  UNL1       -0.2296
      6 C         142.5302  143.9509  161.1443 C.ar    1  UNL1        0.1254
      7 N         142.4182  145.1850  161.9896 N.pl3   1  UNL1       -0.3426
      8 H         142.2706  146.0608  161.5649 H       1  UNL1        0.1437
      9 H         142.4923  145.1191  162.9691 H       1  UNL1        0.1437
     10 C         143.0940  142.3153  166.2684 C.ar    1  UNL1        0.2250
     11 C         144.2379  142.8587  165.4646 C.ar    1  UNL1        0.0577
     12 C         144.1249  142.9591  163.9722 C.ar    1  UNL1        0.0064
     13 C         142.8681  142.5161  163.2837 C.ar    1  UNL1        0.0221
     14 C         141.7243  141.9727  164.0875 C.ar    1  UNL1        0.1021
     15 N         141.8372  141.8723  165.5799 N.ar    1  UNL1       -0.2101
     16 C         142.6280  141.0321  168.4789 C.3     1  UNL1        0.2542
     17 O         143.2069  142.2149  167.7608 O.3     1  UNL1       -0.4561
     18 C         142.8664  140.2488  158.6083 C.ar    1  UNL1        0.0016
     19 C         142.5818  138.9024  159.2052 C.ar    1  UNL1        0.0014
     20 C         142.6938  137.6683  158.3599 C.ar    1  UNL1        0.0199
     21 C         143.0905  137.7807  156.9176 C.ar    1  UNL1        0.1219
     22 C         143.3750  139.1271  156.3207 C.ar    1  UNL1        0.0199
     23 C         143.2630  140.3611  157.1660 C.ar    1  UNL1        0.0014
     24 S         143.2025  136.5467  156.0723 S.O2    1  UNL1        0.0602
     25 O         141.8208  136.1366  156.4878 O.2     1  UNL1       -0.1530
     26 O         144.5842  136.9567  155.6568 O.2     1  UNL1       -0.1530
     27 N         143.3146  135.3126  155.2270 N.3     1  UNL1       -0.1808
     28 H         144.1326  135.4375  154.6307 H       1  UNL1        0.1487
     29 C         143.4539  133.9682  155.8773 C.3     1  UNL1        0.0756
     30 C         142.8636  132.8440  156.6758 C.3     1  UNL1        0.0188
     31 C         144.2856  132.7637  156.2051 C.3     1  UNL1        0.0188
@<TRIPOS>BOND
     1    16    17    1
     2    17    10    1
     3    10    11   ar
     4    11    12   ar
     5    12    13   ar
     6    13     1    1
     7     1     2   ar
     8     2     3   ar
     9     3    18    1
    10    18    19   ar
    11    19    20   ar
    12    20    21   ar
    13    21    24    1
    14    24    25    2
    15    24    26    2
    16    24    27    1
    17    27    29    1
    18    29    30    1
    19    30    31    1
    20    21    22   ar
    21    22    23   ar
    22     3     4   ar
    23     4     5   ar
    24     5     6   ar
    25     6     7    1
    26    13    14   ar
    27    14    15   ar
    28    15    10   ar
    29     6     1   ar
    30    23    18   ar
    31    31    29    1
    32    27    28    1
    33     7     8    1
    34     7     9    1
