@<TRIPOS>MOLECULE
*****
 29 31 0 0 0
SMALL
GASTEIGER

@<TRIPOS>ATOM
      1 C         141.6589  139.8423  165.2103 C.2     1  UNL1        0.0806
      2 N         142.9568  140.3022  164.6153 N.2     1  UNL1       -0.2021
      3 C         143.3470  139.8618  163.2356 C.2     1  UNL1        0.3040
      4 N         142.4395  138.9615  162.4508 N.2     1  UNL1       -0.0109
      5 C         141.1416  138.5016  163.0459 C.2     1  UNL1        0.3639
      6 N         140.0513  137.6186  162.5153 N.2     1  UNL1       -0.0335
      7 C         138.9871  137.5134  163.5672 C.2     1  UNL1        0.2424
      8 C         139.4198  138.3312  164.7479 C.2     1  UNL1        0.1101
      9 C         140.7514  138.9420  164.4256 C.3     1  UNL1        0.1876
     10 C         140.4882  141.1635  169.3497 C.ar    1  UNL1        0.1730
     11 C         140.0634  141.9683  168.1573 C.ar    1  UNL1        0.0515
     12 C         140.4536  141.5279  166.7775 C.ar    1  UNL1        0.0620
     13 CL        140.0288  142.3327  165.5851 Cl      1  UNL1       -0.0821
     14 C         141.2687  140.2827  166.5901 C.ar    1  UNL1        0.0284
     15 C         141.6936  139.4779  167.7826 C.ar    1  UNL1        0.0418
     16 C         141.3033  139.9183  169.1622 C.ar    1  UNL1        0.1678
     17 O         141.7282  139.1135  170.3546 O.3     1  UNL1       -0.5029
     18 H         142.2373  138.3356  170.2376 H       1  UNL1        0.2923
     19 C         139.5886  142.9964  170.9563 C.3     1  UNL1        0.2526
     20 O         140.0980  141.6039  170.7294 O.3     1  UNL1       -0.4684
     21 C         138.6551  138.5074  166.0262 C.1     1  UNL1        0.1009
     22 N         137.8905  138.6835  167.3046 N.1     1  UNL1       -0.1910
     23 S         144.6449  140.3218  162.6405 S.3     1  UNL1       -0.0383
     24 C         145.2587  141.6152  163.0881 C.3     1  UNL1        0.1522
     25 C         144.5723  142.9147  162.7876 C.2     1  UNL1        0.2373
     26 O         144.2707  143.2927  161.3677 O.2     1  UNL1       -0.2739
     27 N         144.1876  143.8361  163.9070 N.am    1  UNL1       -0.2753
     28 C         143.5013  145.1356  163.6063 C.3     1  UNL1        0.1149
     29 C         144.4893  143.4581  165.3269 C.3     1  UNL1        0.1149
@<TRIPOS>BOND
     1    19    20    1
     2    20    10    1
     3    10    11   ar
     4    11    12   ar
     5    12    13    1
     6    12    14   ar
     7    14     1    1
     8     1     2    2
     9     2     3    1
    10     3    23    1
    11    23    24    1
    12    24    25    1
    13    25    26    2
    14    25    27   am
    15    27    28    1
    16    27    29    1
    17     3     4    2
    18     4     5    1
    19     5     6    2
    20     6     7    1
    21     7     8    2
    22     8    21    1
    23    21    22    3
    24     8     9    1
    25    14    15   ar
    26    15    16   ar
    27    16    17    1
    28    16    10   ar
    29     9     1    1
    30     9     5    1
    31    17    18    1
@<TRIPOS>MOLECULE
*****
 29 31 0 0 0
SMALL
GASTEIGER

@<TRIPOS>ATOM
      1 C         141.3581  141.3158  165.4482 C.2     1  UNL1        0.0806
      2 N         140.4855  142.4270  164.9446 N.2     1  UNL1       -0.2021
      3 C         139.8503  143.3797  165.9135 C.2     1  UNL1        0.3040
      4 N         140.0876  143.2212  167.3861 N.2     1  UNL1       -0.0109
      5 C         140.9602  142.1099  167.8898 C.2     1  UNL1        0.3639
      6 N         141.3733  141.7071  169.2743 N.2     1  UNL1       -0.0335
      7 C         142.2639  140.5054  169.1611 C.2     1  UNL1        0.2424
      8 C         142.4012  140.1655  167.7066 C.2     1  UNL1        0.1101
      9 C         141.5954  141.1572  166.9208 C.3     1  UNL1        0.1876
     10 C         143.2638  138.4576  162.5414 C.ar    1  UNL1        0.1730
     11 C         143.9637  139.7328  162.9075 C.ar    1  UNL1        0.0515
     12 C         143.3285  140.6856  163.8765 C.ar    1  UNL1        0.0620
     13 CL        144.0284  141.9607  164.2426 Cl      1  UNL1       -0.0821
     14 C         141.9933  140.3631  164.4793 C.ar    1  UNL1        0.0284
     15 C         141.2934  139.0878  164.1132 C.ar    1  UNL1        0.0418
     16 C         141.9286  138.1352  163.1443 C.ar    1  UNL1        0.1678
     17 O         141.2287  136.8600  162.7782 O.3     1  UNL1       -0.5029
     18 H         140.3947  136.6585  163.1547 H       1  UNL1        0.2923
     19 C         143.3374  137.3561  160.1895 C.3     1  UNL1        0.2526
     20 O         143.8990  137.5050  161.5725 O.3     1  UNL1       -0.4684
     21 C         143.2034  139.0329  167.1377 C.1     1  UNL1        0.1009
     22 N         144.0056  137.9003  166.5688 N.1     1  UNL1       -0.1910
     23 S         138.9777  144.4910  165.4098 S.3     1  UNL1       -0.0383
     24 C         137.8424  144.1892  164.4770 C.3     1  UNL1        0.1522
     25 C         138.0991  144.0410  163.0066 C.2     1  UNL1        0.2373
     26 O         138.5512  145.2229  162.2013 O.2     1  UNL1       -0.2739
     27 N         137.9036  142.7108  162.3414 N.am    1  UNL1       -0.2753
     28 C         138.1603  142.5627  160.8709 C.3     1  UNL1        0.1149
     29 C         137.4515  141.5288  163.1467 C.3     1  UNL1        0.1149
@<TRIPOS>BOND
     1    19    20    1
     2    20    10    1
     3    10    11   ar
     4    11    12   ar
     5    12    13    1
     6    12    14   ar
     7    14     1    1
     8     1     2    2
     9     2     3    1
    10     3    23    1
    11    23    24    1
    12    24    25    1
    13    25    26    2
    14    25    27   am
    15    27    28    1
    16    27    29    1
    17     3     4    2
    18     4     5    1
    19     5     6    2
    20     6     7    1
    21     7     8    2
    22     8    21    1
    23    21    22    3
    24     8     9    1
    25    14    15   ar
    26    15    16   ar
    27    16    17    1
    28    16    10   ar
    29     9     1    1
    30     9     5    1
    31    17    18    1
@<TRIPOS>MOLECULE
*****
 29 31 0 0 0
SMALL
GASTEIGER

@<TRIPOS>ATOM
      1 C         141.1656  141.1268  165.4950 C.2     1  UNL1        0.0806
      2 N         142.2964  141.9721  164.9884 N.2     1  UNL1       -0.2021
      3 C         143.2785  142.5674  165.9532 C.2     1  UNL1        0.3040
      4 N         143.1300  142.3173  167.4248 N.2     1  UNL1       -0.0109
      5 C         141.9992  141.4720  167.9314 C.2     1  UNL1        0.3639
      6 N         141.6002  141.0545  169.3158 N.2     1  UNL1       -0.0335
      7 C         140.3714  140.2012  169.2065 C.2     1  UNL1        0.2424
      8 C         140.0110  140.0913  167.7546 C.2     1  UNL1        0.1101
      9 C         141.0170  140.8767  166.9665 C.3     1  UNL1        0.1876
     10 C         138.2191  139.3410  162.6003 C.ar    1  UNL1        0.1730
     11 C         139.5197  138.6449  162.8718 C.ar    1  UNL1        0.0515
     12 C         140.5020  139.2401  163.8366 C.ar    1  UNL1        0.0620
     13 CL        141.8027  138.5441  164.1081 Cl      1  UNL1       -0.0821
     14 C         140.1835  140.5315  164.5301 C.ar    1  UNL1        0.0284
     15 C         138.8827  141.2276  164.2587 C.ar    1  UNL1        0.0418
     16 C         137.9006  140.6324  163.2939 C.ar    1  UNL1        0.1678
     17 O         136.5999  141.3285  163.0225 O.3     1  UNL1       -0.5029
     18 H         136.4009  142.1352  163.4557 H       1  UNL1        0.2923
     19 C         137.0097  139.3930  160.3015 C.3     1  UNL1        0.2526
     20 O         137.2369  138.7458  161.6355 O.3     1  UNL1       -0.4684
     21 C         138.8486  139.3297  167.1899 C.1     1  UNL1        0.1009
     22 N         137.6863  138.5681  166.6252 N.1     1  UNL1       -0.1910
     23 S         144.4094  143.4128  165.4465 S.3     1  UNL1       -0.0383
     24 C         144.1241  144.6180  164.6003 C.3     1  UNL1        0.1522
     25 C         143.6973  144.4479  163.1724 C.2     1  UNL1        0.2373
     26 O         144.6931  144.0121  162.1388 O.2     1  UNL1       -0.2739
     27 N         142.2746  144.7136  162.7782 N.am    1  UNL1       -0.2753
     28 C         141.8478  144.5434  161.3502 C.3     1  UNL1        0.1149
     29 C         141.2788  145.1493  163.8118 C.3     1  UNL1        0.1149
@<TRIPOS>BOND
     1    19    20    1
     2    20    10    1
     3    10    11   ar
     4    11    12   ar
     5    12    13    1
     6    12    14   ar
     7    14     1    1
     8     1     2    2
     9     2     3    1
    10     3    23    1
    11    23    24    1
    12    24    25    1
    13    25    26    2
    14    25    27   am
    15    27    28    1
    16    27    29    1
    17     3     4    2
    18     4     5    1
    19     5     6    2
    20     6     7    1
    21     7     8    2
    22     8    21    1
    23    21    22    3
    24     8     9    1
    25    14    15   ar
    26    15    16   ar
    27    16    17    1
    28    16    10   ar
    29     9     1    1
    30     9     5    1
    31    17    18    1
@<TRIPOS>MOLECULE
*****
 29 31 0 0 0
SMALL
GASTEIGER

@<TRIPOS>ATOM
      1 C         139.4757  141.1815  165.5888 C.2     1  UNL1        0.0806
      2 N         139.4902  141.3529  167.0789 N.2     1  UNL1       -0.2021
      3 C         139.2839  140.1660  167.9725 C.2     1  UNL1        0.3040
      4 N         139.0632  138.8074  167.3760 N.2     1  UNL1       -0.0109
      5 C         139.0487  138.6360  165.8859 C.2     1  UNL1        0.3639
      6 N         138.8557  137.4291  165.0163 N.2     1  UNL1       -0.0335
      7 C         138.9427  137.8702  163.5853 C.2     1  UNL1        0.2424
      8 C         139.1894  139.3497  163.5705 C.2     1  UNL1        0.1101
      9 C         139.2549  139.8230  164.9923 C.3     1  UNL1        0.1876
     10 C         140.0943  144.7425  162.9081 C.ar    1  UNL1        0.1730
     11 C         141.2726  144.0775  163.5556 C.ar    1  UNL1        0.0515
     12 C         141.0664  142.8905  164.4493 C.ar    1  UNL1        0.0620
     13 CL        142.2447  142.2255  165.0968 Cl      1  UNL1       -0.0821
     14 C         139.6819  142.3685  164.6952 C.ar    1  UNL1        0.0284
     15 C         138.5035  143.0335  164.0476 C.ar    1  UNL1        0.0418
     16 C         138.7097  144.2204  163.1541 C.ar    1  UNL1        0.1678
     17 O         137.5314  144.8854  162.5065 O.3     1  UNL1       -0.5029
     18 H         136.6665  144.5593  162.6602 H       1  UNL1        0.2923
     19 C         140.2554  145.7633  160.5244 C.3     1  UNL1        0.2526
     20 O         140.3005  145.9295  162.0145 O.3     1  UNL1       -0.4684
     21 C         139.3436  140.2056  162.3483 C.1     1  UNL1        0.1009
     22 N         139.4978  141.0615  161.1262 N.1     1  UNL1       -0.1910
     23 S         139.2985  140.3375  169.4626 S.3     1  UNL1       -0.0383
     24 C         140.5861  140.2040  170.2204 C.3     1  UNL1        0.1522
     25 C         141.2486  141.4216  170.7936 C.2     1  UNL1        0.2373
     26 O         140.7413  142.0196  172.0723 O.2     1  UNL1       -0.2739
     27 N         142.4185  142.0410  170.0882 N.am    1  UNL1       -0.2753
     28 C         143.0810  143.2587  170.6616 C.3     1  UNL1        0.1149
     29 C         142.9259  141.4430  168.8096 C.3     1  UNL1        0.1149
@<TRIPOS>BOND
     1    19    20    1
     2    20    10    1
     3    10    11   ar
     4    11    12   ar
     5    12    13    1
     6    12    14   ar
     7    14     1    1
     8     1     2    2
     9     2     3    1
    10     3    23    1
    11    23    24    1
    12    24    25    1
    13    25    26    2
    14    25    27   am
    15    27    28    1
    16    27    29    1
    17     3     4    2
    18     4     5    1
    19     5     6    2
    20     6     7    1
    21     7     8    2
    22     8    21    1
    23    21    22    3
    24     8     9    1
    25    14    15   ar
    26    15    16   ar
    27    16    17    1
    28    16    10   ar
    29     9     1    1
    30     9     5    1
    31    17    18    1
@<TRIPOS>MOLECULE
*****
 29 31 0 0 0
SMALL
GASTEIGER

@<TRIPOS>ATOM
      1 C         141.8993  139.8241  165.8025 C.2     1  UNL1        0.0806
      2 N         143.0227  139.8313  164.8086 N.2     1  UNL1       -0.2021
      3 C         142.8852  139.0833  163.5158 C.2     1  UNL1        0.3040
      4 N         141.6241  138.3279  163.2168 N.2     1  UNL1       -0.0109
      5 C         140.5007  138.3207  164.2107 C.2     1  UNL1        0.3639
      6 N         139.1489  137.6708  164.1927 N.2     1  UNL1       -0.0335
      7 C         138.4511  138.0173  165.4745 C.2     1  UNL1        0.2424
      8 C         139.3715  138.8812  166.2846 C.2     1  UNL1        0.1101
      9 C         140.6383  139.0688  165.5035 C.3     1  UNL1        0.1876
     10 C         142.3121  142.0683  169.6811 C.ar    1  UNL1        0.1730
     11 C         141.6212  142.7088  168.5139 C.ar    1  UNL1        0.0515
     12 C         141.4836  141.9607  167.2209 C.ar    1  UNL1        0.0620
     13 CL        140.7927  142.6012  166.0537 Cl      1  UNL1       -0.0821
     14 C         142.0369  140.5722  167.0953 C.ar    1  UNL1        0.0284
     15 C         142.7278  139.9317  168.2626 C.ar    1  UNL1        0.0418
     16 C         142.8654  140.6797  169.5554 C.ar    1  UNL1        0.1678
     17 O         143.5563  140.0392  170.7227 O.3     1  UNL1       -0.5029
     18 H         143.9019  139.1719  170.6442 H       1  UNL1        0.2923
     19 C         143.5273  143.8477  171.1327 C.3     1  UNL1        0.2526
     20 O         142.4497  142.8163  170.9739 O.3     1  UNL1       -0.4684
     21 C         139.0769  139.4566  167.6382 C.1     1  UNL1        0.1009
     22 N         138.7823  140.0320  168.9917 N.1     1  UNL1       -0.1910
     23 S         144.0087  139.0905  162.5219 S.3     1  UNL1       -0.0383
     24 C         144.2163  140.2811  161.6333 C.3     1  UNL1        0.1522
     25 C         144.6556  141.5888  162.2220 C.2     1  UNL1        0.2373
     26 O         145.9778  141.6891  162.9234 O.2     1  UNL1       -0.2739
     27 N         143.7729  142.7964  162.1094 N.am    1  UNL1       -0.2753
     28 C         144.2124  144.1041  162.6983 C.3     1  UNL1        0.1149
     29 C         142.4507  142.6961  161.4081 C.3     1  UNL1        0.1149
@<TRIPOS>BOND
     1    19    20    1
     2    20    10    1
     3    10    11   ar
     4    11    12   ar
     5    12    13    1
     6    12    14   ar
     7    14     1    1
     8     1     2    2
     9     2     3    1
    10     3    23    1
    11    23    24    1
    12    24    25    1
    13    25    26    2
    14    25    27   am
    15    27    28    1
    16    27    29    1
    17     3     4    2
    18     4     5    1
    19     5     6    2
    20     6     7    1
    21     7     8    2
    22     8    21    1
    23    21    22    3
    24     8     9    1
    25    14    15   ar
    26    15    16   ar
    27    16    17    1
    28    16    10   ar
    29     9     1    1
    30     9     5    1
    31    17    18    1
@<TRIPOS>MOLECULE
*****
 29 31 0 0 0
SMALL
GASTEIGER

@<TRIPOS>ATOM
      1 C         142.4595  142.1647  164.8321 C.2     1  UNL1        0.0806
      2 N         142.1132  143.4264  164.0984 N.2     1  UNL1       -0.2021
      3 C         142.3094  143.5084  162.6136 C.2     1  UNL1        0.3040
      4 N         142.8517  142.3287  161.8624 N.2     1  UNL1       -0.0109
      5 C         143.1979  141.0671  162.5961 C.2     1  UNL1        0.3639
      6 N         143.7464  139.7519  162.1276 N.2     1  UNL1       -0.0335
      7 C         143.8893  138.8571  163.3229 C.2     1  UNL1        0.2424
      8 C         143.4291  139.6192  164.5302 C.2     1  UNL1        0.1101
      9 C         143.0018  140.9851  164.0809 C.3     1  UNL1        0.1876
     10 C         141.8711  141.9187  169.2867 C.ar    1  UNL1        0.1730
     11 C         140.7468  141.5603  168.3608 C.ar    1  UNL1        0.0515
     12 C         140.9428  141.6423  166.8759 C.ar    1  UNL1        0.0620
     13 CL        139.8185  141.2839  165.9499 Cl      1  UNL1       -0.0821
     14 C         142.2633  142.0827  166.3170 C.ar    1  UNL1        0.0284
     15 C         143.3877  142.4411  167.2430 C.ar    1  UNL1        0.0418
     16 C         143.1917  142.3591  168.7277 C.ar    1  UNL1        0.1678
     17 O         144.3160  142.7175  169.6537 O.3     1  UNL1       -0.5029
     18 H         145.1409  142.9926  169.3046 H       1  UNL1        0.2923
     19 C         140.7714  140.7895  171.3521 C.3     1  UNL1        0.2526
     20 O         141.6751  141.8367  170.7715 O.3     1  UNL1       -0.4684
     21 C         143.4011  139.1056  165.9392 C.1     1  UNL1        0.1009
     22 N         143.3731  138.5920  167.3482 N.1     1  UNL1       -0.1910
     23 S         141.9631  144.7702  161.8799 S.3     1  UNL1       -0.0383
     24 C         140.5490  145.2703  161.8740 C.3     1  UNL1        0.1522
     25 C         139.4087  144.2957  161.8761 C.2     1  UNL1        0.2373
     26 O         139.0333  143.5779  160.6136 O.2     1  UNL1       -0.2739
     27 N         138.6439  144.0389  163.1407 N.am    1  UNL1       -0.2753
     28 C         137.5036  143.0643  163.1427 C.3     1  UNL1        0.1149
     29 C         139.0193  144.7567  164.4031 C.3     1  UNL1        0.1149
@<TRIPOS>BOND
     1    19    20    1
     2    20    10    1
     3    10    11   ar
     4    11    12   ar
     5    12    13    1
     6    12    14   ar
     7    14     1    1
     8     1     2    2
     9     2     3    1
    10     3    23    1
    11    23    24    1
    12    24    25    1
    13    25    26    2
    14    25    27   am
    15    27    28    1
    16    27    29    1
    17     3     4    2
    18     4     5    1
    19     5     6    2
    20     6     7    1
    21     7     8    2
    22     8    21    1
    23    21    22    3
    24     8     9    1
    25    14    15   ar
    26    15    16   ar
    27    16    17    1
    28    16    10   ar
    29     9     1    1
    30     9     5    1
    31    17    18    1
@<TRIPOS>MOLECULE
*****
 29 31 0 0 0
SMALL
GASTEIGER

@<TRIPOS>ATOM
      1 C         140.4413  140.5027  164.9714 C.2     1  UNL1        0.0806
      2 N         139.2901  141.3440  164.5058 N.2     1  UNL1       -0.2021
      3 C         138.7275  141.1494  163.1290 C.2     1  UNL1        0.3040
      4 N         139.3161  140.1134  162.2178 N.2     1  UNL1       -0.0109
      5 C         140.4672  139.2720  162.6834 C.2     1  UNL1        0.3639
      6 N         141.2487  138.1810  162.0133 N.2     1  UNL1       -0.0335
      7 C         142.2942  137.7013  162.9760 C.2     1  UNL1        0.2424
      8 C         142.1590  138.4959  164.2410 C.2     1  UNL1        0.1101
      9 C         141.0299  139.4666  164.0602 C.3     1  UNL1        0.1876
     10 C         142.1291  141.0865  169.1019 C.ar    1  UNL1        0.1730
     11 C         142.7459  141.7951  167.9326 C.ar    1  UNL1        0.0515
     12 C         142.1833  141.6006  166.5557 C.ar    1  UNL1        0.0620
     13 CL        142.8001  142.3092  165.3864 Cl      1  UNL1       -0.0821
     14 C         141.0039  140.6973  166.3482 C.ar    1  UNL1        0.0284
     15 C         140.3870  139.9886  167.5176 C.ar    1  UNL1        0.0418
     16 C         140.9496  140.1832  168.8943 C.ar    1  UNL1        0.1678
     17 O         140.3328  139.4746  170.0637 O.3     1  UNL1       -0.5029
     18 H         139.5960  138.9103  169.9341 H       1  UNL1        0.2923
     19 C         142.0154  142.2127  171.4405 C.3     1  UNL1        0.2526
     20 O         142.6916  141.2811  170.4786 O.3     1  UNL1       -0.4684
     21 C         143.0045  138.3460  165.4709 C.1     1  UNL1        0.1009
     22 N         143.8500  138.1961  166.7008 N.1     1  UNL1       -0.1910
     23 S         137.5763  141.9909  162.6634 S.3     1  UNL1       -0.0383
     24 C         137.6815  143.4869  162.6905 C.3     1  UNL1        0.1522
     25 C         138.9619  144.1561  162.2870 C.2     1  UNL1        0.2373
     26 O         139.3716  144.1835  160.8443 O.2     1  UNL1       -0.2739
     27 N         139.8326  144.7979  163.3262 N.am    1  UNL1       -0.2753
     28 C         141.1130  145.4671  162.9226 C.3     1  UNL1        0.1149
     29 C         139.4229  144.7705  164.7689 C.3     1  UNL1        0.1149
@<TRIPOS>BOND
     1    19    20    1
     2    20    10    1
     3    10    11   ar
     4    11    12   ar
     5    12    13    1
     6    12    14   ar
     7    14     1    1
     8     1     2    2
     9     2     3    1
    10     3    23    1
    11    23    24    1
    12    24    25    1
    13    25    26    2
    14    25    27   am
    15    27    28    1
    16    27    29    1
    17     3     4    2
    18     4     5    1
    19     5     6    2
    20     6     7    1
    21     7     8    2
    22     8    21    1
    23    21    22    3
    24     8     9    1
    25    14    15   ar
    26    15    16   ar
    27    16    17    1
    28    16    10   ar
    29     9     1    1
    30     9     5    1
    31    17    18    1
@<TRIPOS>MOLECULE
*****
 29 31 0 0 0
SMALL
GASTEIGER

@<TRIPOS>ATOM
      1 C         140.5510  140.4813  166.0115 C.2     1  UNL1        0.0806
      2 N         140.3293  140.8129  167.4575 N.2     1  UNL1       -0.2021
      3 C         139.3481  140.0184  168.2673 C.2     1  UNL1        0.3040
      4 N         138.5885  138.8920  167.6311 N.2     1  UNL1       -0.0109
      5 C         138.8102  138.5604  166.1852 C.2     1  UNL1        0.3639
      6 N         138.2117  137.5143  165.2922 N.2     1  UNL1       -0.0335
      7 C         138.8230  137.6624  163.9304 C.2     1  UNL1        0.2424
      8 C         139.7994  138.8000  163.9818 C.2     1  UNL1        0.1101
      9 C         139.7915  139.3550  165.3753 C.3     1  UNL1        0.1876
     10 C         143.4946  142.8652  163.5820 C.ar    1  UNL1        0.1730
     11 C         143.9340  141.6054  164.2675 C.ar    1  UNL1        0.0515
     12 C         142.9528  140.8107  165.0774 C.ar    1  UNL1        0.0620
     13 CL        143.3922  139.5510  165.7629 Cl      1  UNL1       -0.0821
     14 C         141.5322  141.2759  165.2017 C.ar    1  UNL1        0.0284
     15 C         141.0928  142.5357  164.5161 C.ar    1  UNL1        0.0418
     16 C         142.0739  143.3303  163.7064 C.ar    1  UNL1        0.1678
     17 O         141.6345  144.5900  163.0208 O.3     1  UNL1       -0.5029
     18 H         140.7471  144.8806  163.0985 H       1  UNL1        0.2923
     19 C         144.8893  143.1794  161.4127 C.3     1  UNL1        0.2526
     20 O         144.4758  143.6597  162.7722 O.3     1  UNL1       -0.4684
     21 C         140.6366  139.2956  162.8401 C.1     1  UNL1        0.1009
     22 N         141.4738  139.7912  161.6984 N.1     1  UNL1       -0.1910
     23 S         139.1264  140.3500  169.7133 S.3     1  UNL1       -0.0383
     24 C         140.2742  140.3039  170.6779 C.3     1  UNL1        0.1522
     25 C         141.0033  141.5646  171.0370 C.2     1  UNL1        0.2373
     26 O         140.3963  142.5306  172.0109 O.2     1  UNL1       -0.2739
     27 N         142.3393  141.8595  170.4221 N.am    1  UNL1       -0.2753
     28 C         143.0683  143.1203  170.7813 C.3     1  UNL1        0.1149
     29 C         142.9464  140.8935  169.4482 C.3     1  UNL1        0.1149
@<TRIPOS>BOND
     1    19    20    1
     2    20    10    1
     3    10    11   ar
     4    11    12   ar
     5    12    13    1
     6    12    14   ar
     7    14     1    1
     8     1     2    2
     9     2     3    1
    10     3    23    1
    11    23    24    1
    12    24    25    1
    13    25    26    2
    14    25    27   am
    15    27    28    1
    16    27    29    1
    17     3     4    2
    18     4     5    1
    19     5     6    2
    20     6     7    1
    21     7     8    2
    22     8    21    1
    23    21    22    3
    24     8     9    1
    25    14    15   ar
    26    15    16   ar
    27    16    17    1
    28    16    10   ar
    29     9     1    1
    30     9     5    1
    31    17    18    1
@<TRIPOS>MOLECULE
*****
 29 31 0 0 0
SMALL
GASTEIGER

@<TRIPOS>ATOM
      1 C         142.0561  141.7672  164.6154 C.2     1  UNL1        0.0806
      2 N         141.4504  142.9735  163.9613 N.2     1  UNL1       -0.2021
      3 C         141.6933  143.2384  162.5051 C.2     1  UNL1        0.3040
      4 N         142.5418  142.2969  161.7028 N.2     1  UNL1       -0.0109
      5 C         143.1475  141.0905  162.3568 C.2     1  UNL1        0.3639
      6 N         144.0210  139.9930  161.8254 N.2     1  UNL1       -0.0335
      7 C         144.3180  139.0499  162.9533 C.2     1  UNL1        0.2424
      8 C         143.6280  139.5644  164.1818 C.2     1  UNL1        0.1101
      9 C         142.9046  140.8257  163.8132 C.3     1  UNL1        0.1876
     10 C         141.3274  140.9725  168.9844 C.ar    1  UNL1        0.1730
     11 C         142.5067  141.7957  168.5583 C.ar    1  UNL1        0.0515
     12 C         142.7497  142.0606  167.1019 C.ar    1  UNL1        0.0620
     13 CL        143.9290  142.8838  166.6758 Cl      1  UNL1       -0.0821
     14 C         141.8132  141.5023  166.0717 C.ar    1  UNL1        0.0284
     15 C         140.6338  140.6791  166.4979 C.ar    1  UNL1        0.0418
     16 C         140.3910  140.4142  167.9541 C.ar    1  UNL1        0.1678
     17 O         139.2116  139.5911  168.3802 O.3     1  UNL1       -0.5029
     18 H         138.6267  139.2423  167.7367 H       1  UNL1        0.2923
     19 C         140.9112  141.8538  171.3928 C.3     1  UNL1        0.2526
     20 O         141.0845  140.7077  170.4406 O.3     1  UNL1       -0.4684
     21 C         143.6565  138.9293  165.5404 C.1     1  UNL1        0.1009
     22 N         143.6850  138.2941  166.8990 N.1     1  UNL1       -0.1910
     23 S         141.0876  144.4449  161.8510 S.3     1  UNL1       -0.0383
     24 C         139.6143  144.4865  161.5721 C.3     1  UNL1        0.1522
     25 C         138.7954  143.2342  161.6769 C.2     1  UNL1        0.2373
     26 O         138.7863  142.2474  160.5473 O.2     1  UNL1       -0.2739
     27 N         137.9857  142.9687  162.9114 N.am    1  UNL1       -0.2753
     28 C         137.1668  141.7162  163.0161 C.3     1  UNL1        0.1149
     29 C         137.9948  143.9555  164.0410 C.3     1  UNL1        0.1149
@<TRIPOS>BOND
     1    19    20    1
     2    20    10    1
     3    10    11   ar
     4    11    12   ar
     5    12    13    1
     6    12    14   ar
     7    14     1    1
     8     1     2    2
     9     2     3    1
    10     3    23    1
    11    23    24    1
    12    24    25    1
    13    25    26    2
    14    25    27   am
    15    27    28    1
    16    27    29    1
    17     3     4    2
    18     4     5    1
    19     5     6    2
    20     6     7    1
    21     7     8    2
    22     8    21    1
    23    21    22    3
    24     8     9    1
    25    14    15   ar
    26    15    16   ar
    27    16    17    1
    28    16    10   ar
    29     9     1    1
    30     9     5    1
    31    17    18    1
