@<TRIPOS>MOLECULE
*****
 42 47 0 0 0
SMALL
GASTEIGER

@<TRIPOS>ATOM
      1 C         140.9871  141.2304  159.4909 C.3     1  UNL1        0.0341
      2 C         141.8448  141.9946  158.5264 C.ar    1  UNL1        0.0137
      3 C         141.6672  143.4319  158.1361 C.ar    1  UNL1        0.0699
      4 C         142.7434  143.7812  157.1513 C.ar    1  UNL1        0.1149
      5 N         143.5861  142.5597  156.9329 N.ar    1  UNL1       -0.2230
      6 N         144.7874  142.3102  156.0700 N.ar    1  UNL1       -0.1422
      7 C         145.4334  140.9565  156.0570 C.ar    1  UNL1        0.2211
      8 N         144.8780  139.8523  156.9069 N.ar    1  UNL1       -0.2060
      9 C         143.6767  140.1018  157.7698 C.ar    1  UNL1        0.1515
     10 C         143.0308  141.4554  157.7828 C.ar    1  UNL1        0.1118
     11 N         140.6007  144.3576  158.6418 N.am    1  UNL1       -0.2487
     12 C         140.7690  145.0441  159.9648 C.2     1  UNL1        0.4055
     13 O         142.0038  144.8050  160.7821 O.2     1  UNL1       -0.2261
     14 H         139.7902  144.5145  158.1054 H       1  UNL1        0.1582
     15 O         139.7024  145.9697  160.4705 O.3     1  UNL1       -0.4329
     16 C         139.4866  146.1301  161.9462 C.3     1  UNL1        0.2282
     17 C         138.9623  144.9820  162.7567 C.3     1  UNL1        0.1284
     18 C         139.2779  144.8912  164.2204 C.3     1  UNL1        0.1616
     19 O         138.7535  143.7430  165.0308 O.3     1  UNL1       -0.3507
     20 C         137.9136  142.6857  164.3776 C.3     1  UNL1        0.1592
     21 C         137.5980  142.7765  162.9140 C.3     1  UNL1        0.1012
     22 N         138.1224  143.9247  162.1036 N.3     1  UNL1       -0.2914
     23 H         137.3117  144.3976  161.7042 H       1  UNL1        0.1235
     24 N         143.1214  138.9975  158.6197 N.pl3   1  UNL1       -0.2967
     25 H         142.6316  138.2531  158.2012 H       1  UNL1        0.1537
     26 C         143.3124  139.0275  160.1071 C.ar    1  UNL1        0.0495
     27 C         142.6120  138.0231  160.9736 C.ar    1  UNL1        0.0162
     28 C         142.8030  138.0531  162.4611 C.ar    1  UNL1        0.0201
     29 C         143.6943  139.0875  163.0821 C.ar    1  UNL1        0.0798
     30 C         144.3946  140.0919  162.2157 C.ar    1  UNL1        0.0394
     31 C         145.2052  140.9867  163.1057 C.ar    1  UNL1        0.1216
     32 N         145.0059  140.5353  164.5222 N.ar    1  UNL1       -0.1674
     33 N         144.0721  139.3616  164.5077 N.ar    1  UNL1       -0.2464
     34 C         144.2036  140.0619  160.7282 C.ar    1  UNL1        0.0177
     35 C         143.5991  138.5962  165.7079 C.3     1  UNL1        0.1538
     36 C         142.4243  139.0915  166.4981 C.ar    1  UNL1        0.0043
     37 C         142.5928  139.4574  167.9430 C.ar    1  UNL1       -0.0022
     38 C         141.4180  139.9528  168.7332 C.ar    1  UNL1        0.0020
     39 C         140.0746  140.0823  168.0784 C.ar    1  UNL1        0.0296
     40 C         139.9061  139.7165  166.6336 C.ar    1  UNL1        0.1399
     41 F         138.5628  139.8460  165.9789 F       1  UNL1       -0.2042
     42 C         141.0809  139.2211  165.8434 C.ar    1  UNL1        0.0273
@<TRIPOS>BOND
     1     1     2    1
     2     2     3   ar
     3     3    11    1
     4    11    12   am
     5    12    13    2
     6    12    15    1
     7    15    16    1
     8    17    16    1
     9    17    18    1
    10    18    19    1
    11    19    20    1
    12    20    21    1
    13    21    22    1
    14     3     4   ar
    15     4     5   ar
    16     5     6   ar
    17     6     7   ar
    18     7     8   ar
    19     8     9   ar
    20     9    24    1
    21    24    26    1
    22    26    27   ar
    23    27    28   ar
    24    28    29   ar
    25    29    30   ar
    26    30    31   ar
    27    31    32   ar
    28    32    33   ar
    29    33    35    1
    30    35    36    1
    31    36    37   ar
    32    37    38   ar
    33    38    39   ar
    34    39    40   ar
    35    40    41    1
    36    40    42   ar
    37    30    34   ar
    38     9    10   ar
    39    10     2   ar
    40    22    17    1
    41    10     5   ar
    42    34    26   ar
    43    33    29   ar
    44    42    36   ar
    45    11    14    1
    46    22    23    1
    47    24    25    1
@<TRIPOS>MOLECULE
*****
 42 47 0 0 0
SMALL
GASTEIGER

@<TRIPOS>ATOM
      1 C         140.6803  141.2101  159.3511 C.3     1  UNL1        0.0341
      2 C         141.6948  142.0189  158.5984 C.ar    1  UNL1        0.0137
      3 C         141.6424  143.4991  158.3613 C.ar    1  UNL1        0.0699
      4 C         142.8550  143.8845  157.5670 C.ar    1  UNL1        0.1149
      5 N         143.6569  142.6425  157.3132 N.ar    1  UNL1       -0.2230
      6 N         144.9474  142.4126  156.5840 N.ar    1  UNL1       -0.1422
      7 C         145.5208  141.0296  156.4922 C.ar    1  UNL1        0.2211
      8 N         144.8038  139.8765  157.1297 N.ar    1  UNL1       -0.2060
      9 C         143.5133  140.1065  157.8589 C.ar    1  UNL1        0.1515
     10 C         142.9399  141.4895  157.9506 C.ar    1  UNL1        0.1118
     11 N         140.5662  144.4304  158.8352 N.am    1  UNL1       -0.2487
     12 C         140.7015  145.1204  160.1602 C.2     1  UNL1        0.4055
     13 O         141.9129  144.8791  161.0113 O.2     1  UNL1       -0.2261
     14 H         139.7711  144.5887  158.2767 H       1  UNL1        0.1582
     15 O         139.6253  146.0516  160.6342 O.3     1  UNL1       -0.4329
     16 C         139.3160  146.1571  162.0982 C.3     1  UNL1        0.2282
     17 C         138.9447  144.9298  162.8766 C.3     1  UNL1        0.1284
     18 C         139.6570  144.6099  164.1574 C.3     1  UNL1        0.1616
     19 O         139.2857  143.3826  164.9357 O.3     1  UNL1       -0.3507
     20 C         138.2020  142.4752  164.4333 C.3     1  UNL1        0.1592
     21 C         137.4898  142.7951  163.1526 C.3     1  UNL1        0.1012
     22 N         137.8611  144.0224  162.3742 N.3     1  UNL1       -0.2914
     23 H         137.0160  144.5882  162.2958 H       1  UNL1        0.1235
     24 N         142.7962  138.9535  158.4963 N.pl3   1  UNL1       -0.2967
     25 H         142.3163  138.3017  157.9359 H       1  UNL1        0.1537
     26 C         142.8104  138.7935  159.9877 C.ar    1  UNL1        0.0495
     27 C         143.9483  139.3501  160.7910 C.ar    1  UNL1        0.0162
     28 C         143.9625  139.1901  162.2823 C.ar    1  UNL1        0.0201
     29 C         142.8387  138.4735  162.9705 C.ar    1  UNL1        0.0798
     30 C         141.7007  137.9169  162.1672 C.ar    1  UNL1        0.0394
     31 C         140.7397  137.2636  163.1157 C.ar    1  UNL1        0.1216
     32 N         141.2838  137.4164  164.5052 N.ar    1  UNL1       -0.1674
     33 N         142.5810  138.1642  164.4154 N.ar    1  UNL1       -0.2464
     34 C         141.6865  138.0769  160.6758 C.ar    1  UNL1        0.0177
     35 C         143.4653  138.5372  165.5683 C.3     1  UNL1        0.1538
     36 C         143.1234  139.7212  166.4232 C.ar    1  UNL1        0.0043
     37 C         143.1454  141.1016  165.8364 C.ar    1  UNL1       -0.0022
     38 C         142.8035  142.2857  166.6913 C.ar    1  UNL1        0.0020
     39 C         142.4395  142.0895  168.1332 C.ar    1  UNL1        0.0296
     40 C         142.4174  140.7092  168.7201 C.ar    1  UNL1        0.1399
     41 F         142.0534  140.5131  170.1620 F       1  UNL1       -0.2042
     42 C         142.7593  139.5251  167.8651 C.ar    1  UNL1        0.0273
@<TRIPOS>BOND
     1     1     2    1
     2     2     3   ar
     3     3    11    1
     4    11    12   am
     5    12    13    2
     6    12    15    1
     7    15    16    1
     8    17    16    1
     9    17    18    1
    10    18    19    1
    11    19    20    1
    12    20    21    1
    13    21    22    1
    14     3     4   ar
    15     4     5   ar
    16     5     6   ar
    17     6     7   ar
    18     7     8   ar
    19     8     9   ar
    20     9    24    1
    21    24    26    1
    22    26    27   ar
    23    27    28   ar
    24    28    29   ar
    25    29    30   ar
    26    30    31   ar
    27    31    32   ar
    28    32    33   ar
    29    33    35    1
    30    35    36    1
    31    36    37   ar
    32    37    38   ar
    33    38    39   ar
    34    39    40   ar
    35    40    41    1
    36    40    42   ar
    37    30    34   ar
    38     9    10   ar
    39    10     2   ar
    40    22    17    1
    41    10     5   ar
    42    34    26   ar
    43    33    29   ar
    44    42    36   ar
    45    11    14    1
    46    22    23    1
    47    24    25    1
@<TRIPOS>MOLECULE
*****
 42 47 0 0 0
SMALL
GASTEIGER

@<TRIPOS>ATOM
      1 C         143.2891  142.7200  160.2685 C.3     1  UNL1        0.0341
      2 C         142.9480  143.0938  158.8564 C.ar    1  UNL1        0.0137
      3 C         142.2027  144.3220  158.4250 C.ar    1  UNL1        0.0699
      4 C         142.0864  144.2922  156.9298 C.ar    1  UNL1        0.1149
      5 N         142.7599  143.0457  156.4371 N.ar    1  UNL1       -0.2230
      6 N         142.9570  142.4894  155.0582 N.ar    1  UNL1       -0.1422
      7 C         143.6866  141.1925  154.8699 C.ar    1  UNL1        0.2211
      8 N         144.2191  140.4518  156.0606 N.ar    1  UNL1       -0.2060
      9 C         144.0220  141.0081  157.4396 C.ar    1  UNL1        0.1515
     10 C         143.2923  142.3050  157.6279 C.ar    1  UNL1        0.1118
     11 N         141.6676  145.3920  159.3299 N.am    1  UNL1       -0.2487
     12 C         140.2704  145.2912  159.8661 C.2     1  UNL1        0.4055
     13 O         139.4082  144.1204  159.4975 O.2     1  UNL1       -0.2261
     14 H         142.2335  146.1604  159.5718 H       1  UNL1        0.1582
     15 O         139.7353  146.3612  160.7710 O.3     1  UNL1       -0.4329
     16 C         139.4589  146.0547  162.2131 C.3     1  UNL1        0.2282
     17 C         139.1995  144.6413  162.6431 C.3     1  UNL1        0.1284
     18 C         140.2379  143.8927  163.4251 C.3     1  UNL1        0.1616
     19 O         139.9785  142.4792  163.8551 O.3     1  UNL1       -0.3507
     20 C         138.6807  141.8144  163.5031 C.3     1  UNL1        0.1592
     21 C         137.6424  142.5630  162.7212 C.3     1  UNL1        0.1012
     22 N         137.9018  143.9764  162.2912 N.3     1  UNL1       -0.2914
     23 H         137.1593  144.5478  162.6945 H       1  UNL1        0.1235
     24 N         144.5545  140.2674  158.6303 N.pl3   1  UNL1       -0.2967
     25 H         145.5259  140.2050  158.7772 H       1  UNL1        0.1537
     26 C         143.6068  139.6218  159.5973 C.ar    1  UNL1        0.0495
     27 C         144.0928  139.1914  160.9497 C.ar    1  UNL1        0.0162
     28 C         143.1451  138.5458  161.9166 C.ar    1  UNL1        0.0201
     29 C         141.7115  138.3305  161.5314 C.ar    1  UNL1        0.0798
     30 C         141.2255  138.7609  160.1792 C.ar    1  UNL1        0.0394
     31 C         139.7679  138.4212  160.0807 C.ar    1  UNL1        0.1216
     32 N         139.3529  137.7809  161.3721 N.ar    1  UNL1       -0.1674
     33 N         140.5541  137.7249  162.2687 N.ar    1  UNL1       -0.2464
     34 C         142.1732  139.4065  159.2121 C.ar    1  UNL1        0.0177
     35 C         140.5915  137.1620  163.6587 C.3     1  UNL1        0.1538
     36 C         140.0932  137.9803  164.8128 C.ar    1  UNL1        0.0043
     37 C         138.6845  137.8110  165.2994 C.ar    1  UNL1       -0.0022
     38 C         138.1861  138.6293  166.4535 C.ar    1  UNL1        0.0020
     39 C         139.0966  139.6169  167.1211 C.ar    1  UNL1        0.0296
     40 C         140.5054  139.7862  166.6345 C.ar    1  UNL1        0.1399
     41 F         141.4158  140.7739  167.3021 F       1  UNL1       -0.2042
     42 C         141.0037  138.9679  165.4804 C.ar    1  UNL1        0.0273
@<TRIPOS>BOND
     1     1     2    1
     2     2     3   ar
     3     3    11    1
     4    11    12   am
     5    12    13    2
     6    12    15    1
     7    15    16    1
     8    17    16    1
     9    17    18    1
    10    18    19    1
    11    19    20    1
    12    20    21    1
    13    21    22    1
    14     3     4   ar
    15     4     5   ar
    16     5     6   ar
    17     6     7   ar
    18     7     8   ar
    19     8     9   ar
    20     9    24    1
    21    24    26    1
    22    26    27   ar
    23    27    28   ar
    24    28    29   ar
    25    29    30   ar
    26    30    31   ar
    27    31    32   ar
    28    32    33   ar
    29    33    35    1
    30    35    36    1
    31    36    37   ar
    32    37    38   ar
    33    38    39   ar
    34    39    40   ar
    35    40    41    1
    36    40    42   ar
    37    30    34   ar
    38     9    10   ar
    39    10     2   ar
    40    22    17    1
    41    10     5   ar
    42    34    26   ar
    43    33    29   ar
    44    42    36   ar
    45    11    14    1
    46    22    23    1
    47    24    25    1
@<TRIPOS>MOLECULE
*****
 42 47 0 0 0
SMALL
GASTEIGER

@<TRIPOS>ATOM
      1 C         142.9633  137.3357  160.1195 C.3     1  UNL1        0.0341
      2 C         142.8209  138.4678  159.1458 C.ar    1  UNL1        0.0137
      3 C         142.1762  138.3919  157.7935 C.ar    1  UNL1        0.0699
      4 C         142.2551  139.7518  157.1655 C.ar    1  UNL1        0.1149
      5 N         142.9486  140.6681  158.1295 N.ar    1  UNL1       -0.2230
      6 N         143.3068  142.1226  158.0510 N.ar    1  UNL1       -0.1422
      7 C         144.0147  142.7835  159.1965 C.ar    1  UNL1        0.2211
      8 N         144.3644  141.9899  160.4204 N.ar    1  UNL1       -0.2060
      9 C         144.0062  140.5355  160.4989 C.ar    1  UNL1        0.1515
     10 C         143.2983  139.8746  159.3535 C.ar    1  UNL1        0.1118
     11 N         141.5607  137.1706  157.1775 N.am    1  UNL1       -0.2487
     12 C         142.4331  136.1358  156.5311 C.2     1  UNL1        0.4055
     13 O         143.9212  136.3223  156.5007 O.2     1  UNL1       -0.2261
     14 H         140.5840  137.0482  157.1975 H       1  UNL1        0.1582
     15 O         141.8176  134.9144  155.9151 O.3     1  UNL1       -0.4329
     16 C         142.6939  133.8472  155.3291 C.3     1  UNL1        0.2282
     17 C         143.3656  132.8514  156.2275 C.3     1  UNL1        0.1284
     18 C         142.7957  131.4719  156.3768 C.3     1  UNL1        0.1616
     19 O         143.4674  130.4760  157.2751 O.3     1  UNL1       -0.3507
     20 C         144.7092  130.8597  158.0242 C.3     1  UNL1        0.1592
     21 C         145.2790  132.2391  157.8749 C.3     1  UNL1        0.1012
     22 N         144.6073  133.2350  156.9765 N.3     1  UNL1       -0.2914
     23 H         145.2972  133.5148  156.2793 H       1  UNL1        0.1235
     24 N         144.3559  139.7419  161.7228 N.pl3   1  UNL1       -0.2967
     25 H         145.1692  139.1872  161.7340 H       1  UNL1        0.1537
     26 C         143.4665  139.7935  162.9295 C.ar    1  UNL1        0.0495
     27 C         144.0449  139.5810  164.2972 C.ar    1  UNL1        0.0162
     28 C         143.1555  139.6326  165.5039 C.ar    1  UNL1        0.0201
     29 C         141.6878  139.8967  165.3431 C.ar    1  UNL1        0.0798
     30 C         141.1093  140.1092  163.9756 C.ar    1  UNL1        0.0394
     31 C         139.6363  140.3482  164.1273 C.ar    1  UNL1        0.1216
     32 N         139.3043  140.2834  165.5886 N.ar    1  UNL1       -0.1674
     33 N         140.5722  140.0043  166.3401 N.ar    1  UNL1       -0.2464
     34 C         141.9987  140.0576  162.7687 C.ar    1  UNL1        0.0177
     35 C         140.7018  139.8585  167.8274 C.3     1  UNL1        0.1538
     36 C         141.3718  140.9335  168.6307 C.ar    1  UNL1        0.0043
     37 C         142.7777  140.7404  169.1169 C.ar    1  UNL1       -0.0022
     38 C         143.4478  141.8154  169.9203 C.ar    1  UNL1        0.0020
     39 C         142.7120  143.0835  170.2375 C.ar    1  UNL1        0.0296
     40 C         141.3062  143.2766  169.7513 C.ar    1  UNL1        0.1399
     41 F         140.5705  144.5447  170.0685 F       1  UNL1       -0.2042
     42 C         140.6361  142.2016  168.9480 C.ar    1  UNL1        0.0273
@<TRIPOS>BOND
     1     1     2    1
     2     2     3   ar
     3     3    11    1
     4    11    12   am
     5    12    13    2
     6    12    15    1
     7    15    16    1
     8    17    16    1
     9    17    18    1
    10    18    19    1
    11    19    20    1
    12    20    21    1
    13    21    22    1
    14     3     4   ar
    15     4     5   ar
    16     5     6   ar
    17     6     7   ar
    18     7     8   ar
    19     8     9   ar
    20     9    24    1
    21    24    26    1
    22    26    27   ar
    23    27    28   ar
    24    28    29   ar
    25    29    30   ar
    26    30    31   ar
    27    31    32   ar
    28    32    33   ar
    29    33    35    1
    30    35    36    1
    31    36    37   ar
    32    37    38   ar
    33    38    39   ar
    34    39    40   ar
    35    40    41    1
    36    40    42   ar
    37    30    34   ar
    38     9    10   ar
    39    10     2   ar
    40    22    17    1
    41    10     5   ar
    42    34    26   ar
    43    33    29   ar
    44    42    36   ar
    45    11    14    1
    46    22    23    1
    47    24    25    1
@<TRIPOS>MOLECULE
*****
 42 47 0 0 0
SMALL
GASTEIGER

@<TRIPOS>ATOM
      1 C         140.0468  140.8936  160.3974 C.3     1  UNL1        0.0341
      2 C         140.8111  141.3945  159.2079 C.ar    1  UNL1        0.0137
      3 C         140.7613  142.7860  158.6500 C.ar    1  UNL1        0.0699
      4 C         141.6789  142.8432  157.4648 C.ar    1  UNL1        0.1149
      5 N         142.2958  141.4871  157.2902 N.ar    1  UNL1       -0.2230
      6 N         143.2766  140.9520  156.2894 N.ar    1  UNL1       -0.1422
      7 C         143.7210  139.5214  156.3659 C.ar    1  UNL1        0.2211
      8 N         143.1847  138.6260  157.4433 N.ar    1  UNL1       -0.2060
      9 C         142.2039  139.1612  158.4440 C.ar    1  UNL1        0.1515
     10 C         141.7595  140.5917  158.3675 C.ar    1  UNL1        0.1118
     11 N         139.9385  143.9209  159.1836 N.am    1  UNL1       -0.2487
     12 C         140.5825  144.9847  160.0224 C.2     1  UNL1        0.4055
     13 O         142.0494  144.9136  160.3275 O.2     1  UNL1       -0.2261
     14 H         138.9757  143.9676  158.9834 H       1  UNL1        0.1582
     15 O         139.7596  146.1197  160.5560 O.3     1  UNL1       -0.4329
     16 C         139.2909  146.1012  161.9809 C.3     1  UNL1        0.2282
     17 C         139.0307  144.7934  162.6679 C.3     1  UNL1        0.1284
     18 C         139.9727  144.3020  163.7268 C.3     1  UNL1        0.1616
     19 O         139.7125  142.9942  164.4138 O.3     1  UNL1       -0.3507
     20 C         138.5103  142.1778  164.0419 C.3     1  UNL1        0.1592
     21 C         137.5684  142.6692  162.9830 C.3     1  UNL1        0.1012
     22 N         137.8286  143.9770  162.2960 N.3     1  UNL1       -0.2914
     23 H         137.0112  144.5643  162.4614 H       1  UNL1        0.1235
     24 N         141.6676  138.2658  159.5214 N.pl3   1  UNL1       -0.2967
     25 H         140.9999  137.5766  159.3015 H       1  UNL1        0.1537
     26 C         142.1486  138.4205  160.9337 C.ar    1  UNL1        0.0495
     27 C         141.4555  137.6911  162.0462 C.ar    1  UNL1        0.0162
     28 C         141.9366  137.8458  163.4585 C.ar    1  UNL1        0.0201
     29 C         143.1107  138.7299  163.7584 C.ar    1  UNL1        0.0798
     30 C         143.8038  139.4592  162.6459 C.ar    1  UNL1        0.0394
     31 C         144.9268  140.2550  163.2422 C.ar    1  UNL1        0.1216
     32 N         144.9278  140.0174  164.7233 N.ar    1  UNL1       -0.1674
     33 N         143.8054  139.0749  165.0423 N.ar    1  UNL1       -0.2464
     34 C         143.3228  139.3045  161.2335 C.ar    1  UNL1        0.0177
     35 C         143.4414  138.5665  166.4059 C.3     1  UNL1        0.1538
     36 C         142.3607  139.2440  167.1950 C.ar    1  UNL1        0.0043
     37 C         141.1232  139.7354  166.5040 C.ar    1  UNL1       -0.0022
     38 C         140.0424  140.4129  167.2931 C.ar    1  UNL1        0.0020
     39 C         140.1990  140.5992  168.7733 C.ar    1  UNL1        0.0296
     40 C         141.4364  140.1079  169.4642 C.ar    1  UNL1        0.1399
     41 F         141.5929  140.2943  170.9443 F       1  UNL1       -0.2042
     42 C         142.5172  139.4304  168.6751 C.ar    1  UNL1        0.0273
@<TRIPOS>BOND
     1     1     2    1
     2     2     3   ar
     3     3    11    1
     4    11    12   am
     5    12    13    2
     6    12    15    1
     7    15    16    1
     8    17    16    1
     9    17    18    1
    10    18    19    1
    11    19    20    1
    12    20    21    1
    13    21    22    1
    14     3     4   ar
    15     4     5   ar
    16     5     6   ar
    17     6     7   ar
    18     7     8   ar
    19     8     9   ar
    20     9    24    1
    21    24    26    1
    22    26    27   ar
    23    27    28   ar
    24    28    29   ar
    25    29    30   ar
    26    30    31   ar
    27    31    32   ar
    28    32    33   ar
    29    33    35    1
    30    35    36    1
    31    36    37   ar
    32    37    38   ar
    33    38    39   ar
    34    39    40   ar
    35    40    41    1
    36    40    42   ar
    37    30    34   ar
    38     9    10   ar
    39    10     2   ar
    40    22    17    1
    41    10     5   ar
    42    34    26   ar
    43    33    29   ar
    44    42    36   ar
    45    11    14    1
    46    22    23    1
    47    24    25    1
@<TRIPOS>MOLECULE
*****
 42 47 0 0 0
SMALL
GASTEIGER

@<TRIPOS>ATOM
      1 C         143.3180  142.1379  160.5419 C.3     1  UNL1        0.0341
      2 C         142.4750  141.7373  159.3677 C.ar    1  UNL1        0.0137
      3 C         141.5136  142.6214  158.6301 C.ar    1  UNL1        0.0699
      4 C         140.8898  141.8127  157.5315 C.ar    1  UNL1        0.1149
      5 N         141.4656  140.4289  157.5902 N.ar    1  UNL1       -0.2230
      6 N         141.2245  139.2053  156.7568 N.ar    1  UNL1       -0.1422
      7 C         141.9630  137.9350  157.0584 C.ar    1  UNL1        0.2211
      8 N         142.9428  137.8884  158.1932 N.ar    1  UNL1       -0.2060
      9 C         143.1839  139.1121  159.0266 C.ar    1  UNL1        0.1515
     10 C         142.4454  140.3823  158.7250 C.ar    1  UNL1        0.1118
     11 N         141.2264  144.0613  158.9371 N.am    1  UNL1       -0.2487
     12 C         140.0131  144.4297  159.7384 C.2     1  UNL1        0.4055
     13 O         139.0869  143.3583  160.2327 O.2     1  UNL1       -0.2261
     14 H         141.8342  144.7645  158.6127 H       1  UNL1        0.1582
     15 O         139.7259  145.8696  160.0455 O.3     1  UNL1       -0.4329
     16 C         139.6690  146.3358  161.4701 C.3     1  UNL1        0.2282
     17 C         139.3943  145.3537  162.5702 C.3     1  UNL1        0.1284
     18 C         140.4838  144.9799  163.5311 C.3     1  UNL1        0.1616
     19 O         140.2091  143.9978  164.6312 O.3     1  UNL1       -0.3507
     20 C         138.8450  143.3895  164.7702 C.3     1  UNL1        0.1592
     21 C         137.7557  143.7633  163.8093 C.3     1  UNL1        0.1012
     22 N         138.0303  144.7454  162.7092 N.3     1  UNL1       -0.2914
     23 H         137.3750  145.5172  162.8331 H       1  UNL1        0.1235
     24 N         144.1637  139.0655  160.1614 N.pl3   1  UNL1       -0.2967
     25 H         145.1305  139.0465  159.9766 H       1  UNL1        0.1537
     26 C         143.6704  139.0479  161.5779 C.ar    1  UNL1        0.0495
     27 C         144.5522  139.5438  162.6854 C.ar    1  UNL1        0.0162
     28 C         144.0589  139.5262  164.1018 C.ar    1  UNL1        0.0201
     29 C         142.6839  139.0126  164.4108 C.ar    1  UNL1        0.0798
     30 C         141.8021  138.5167  163.3034 C.ar    1  UNL1        0.0394
     31 C         140.5037  138.0718  163.9085 C.ar    1  UNL1        0.1216
     32 N         140.5830  138.2928  165.3900 N.ar    1  UNL1       -0.1674
     33 N         141.9304  138.8742  165.7005 N.ar    1  UNL1       -0.2464
     34 C         142.2953  138.5343  161.8869 C.ar    1  UNL1        0.0177
     35 C         142.4358  139.2512  167.0616 C.3     1  UNL1        0.1538
     36 C         141.7132  140.2883  167.8691 C.ar    1  UNL1        0.0043
     37 C         142.2589  141.6827  167.9596 C.ar    1  UNL1       -0.0022
     38 C         141.5363  142.7200  168.7670 C.ar    1  UNL1        0.0020
     39 C         140.2681  142.3629  169.4841 C.ar    1  UNL1        0.0296
     40 C         139.7225  140.9686  169.3937 C.ar    1  UNL1        0.1399
     41 F         138.4543  140.6115  170.1108 F       1  UNL1       -0.2042
     42 C         140.4451  139.9313  168.5862 C.ar    1  UNL1        0.0273
@<TRIPOS>BOND
     1     1     2    1
     2     2     3   ar
     3     3    11    1
     4    11    12   am
     5    12    13    2
     6    12    15    1
     7    15    16    1
     8    17    16    1
     9    17    18    1
    10    18    19    1
    11    19    20    1
    12    20    21    1
    13    21    22    1
    14     3     4   ar
    15     4     5   ar
    16     5     6   ar
    17     6     7   ar
    18     7     8   ar
    19     8     9   ar
    20     9    24    1
    21    24    26    1
    22    26    27   ar
    23    27    28   ar
    24    28    29   ar
    25    29    30   ar
    26    30    31   ar
    27    31    32   ar
    28    32    33   ar
    29    33    35    1
    30    35    36    1
    31    36    37   ar
    32    37    38   ar
    33    38    39   ar
    34    39    40   ar
    35    40    41    1
    36    40    42   ar
    37    30    34   ar
    38     9    10   ar
    39    10     2   ar
    40    22    17    1
    41    10     5   ar
    42    34    26   ar
    43    33    29   ar
    44    42    36   ar
    45    11    14    1
    46    22    23    1
    47    24    25    1
@<TRIPOS>MOLECULE
*****
 42 47 0 0 0
SMALL
GASTEIGER

@<TRIPOS>ATOM
      1 C         141.4028  138.3537  165.6827 C.3     1  UNL1        0.0341
      2 C         141.2622  139.7955  166.0717 C.ar    1  UNL1        0.0137
      3 C         141.9488  140.4692  167.2227 C.ar    1  UNL1        0.0699
      4 C         141.5211  141.9068  167.2404 C.ar    1  UNL1        0.1149
      5 N         140.5702  142.1216  166.1004 N.ar    1  UNL1       -0.2230
      6 N         139.8294  143.3369  165.6267 N.ar    1  UNL1       -0.1422
      7 C         138.9286  143.2472  164.4307 C.ar    1  UNL1        0.2211
      8 N         138.7685  141.9423  163.7084 N.ar    1  UNL1       -0.2060
      9 C         139.5093  140.7271  164.1821 C.ar    1  UNL1        0.1515
     10 C         140.4102  140.8168  165.3781 C.ar    1  UNL1        0.1118
     11 N         142.8966  139.8193  168.1867 N.am    1  UNL1       -0.2487
     12 C         142.3979  139.3293  169.5137 C.2     1  UNL1        0.4055
     13 O         140.9512  139.4891  169.8768 O.2     1  UNL1       -0.2261
     14 H         143.8461  139.7144  167.9484 H       1  UNL1        0.1582
     15 O         143.3457  138.6794  170.4777 O.3     1  UNL1       -0.4329
     16 C         143.6572  137.2174  170.3529 C.3     1  UNL1        0.2282
     17 C         144.5679  136.5572  171.3453 C.3     1  UNL1        0.1284
     18 C         144.4773  135.0781  171.5781 C.3     1  UNL1        0.1616
     19 O         145.3880  134.4179  172.5704 O.3     1  UNL1       -0.3507
     20 C         146.3893  135.2368  173.3300 C.3     1  UNL1        0.1592
     21 C         146.4798  136.7158  173.0972 C.3     1  UNL1        0.1012
     22 N         145.5691  137.3760  172.1048 N.3     1  UNL1       -0.2914
     23 H         146.1663  137.8277  171.4121 H       1  UNL1        0.1235
     24 N         139.3493  139.4222  163.4598 N.pl3   1  UNL1       -0.2967
     25 H         138.8147  138.6996  163.8615 H       1  UNL1        0.1537
     26 C         140.0037  139.2183  162.1257 C.ar    1  UNL1        0.0495
     27 C         139.2115  138.6648  160.9784 C.ar    1  UNL1        0.0162
     28 C         139.8659  138.4609  159.6442 C.ar    1  UNL1        0.0201
     29 C         141.3126  138.8104  159.4572 C.ar    1  UNL1        0.0798
     30 C         142.1048  139.3639  160.6044 C.ar    1  UNL1        0.0394
     31 C         143.5033  139.6148  160.1236 C.ar    1  UNL1        0.1216
     32 N         143.5754  139.2165  158.6793 N.ar    1  UNL1       -0.1674
     33 N         142.2215  138.7193  158.2674 N.ar    1  UNL1       -0.2464
     34 C         141.4504  139.5678  161.9386 C.ar    1  UNL1        0.0177
     35 C         141.8428  138.2189  156.9049 C.3     1  UNL1        0.1538
     36 C         141.9957  136.7646  156.5709 C.ar    1  UNL1        0.0043
     37 C         141.1435  136.1469  155.5022 C.ar    1  UNL1       -0.0022
     38 C         141.2963  134.6926  155.1681 C.ar    1  UNL1        0.0020
     39 C         142.3015  133.8559  155.9029 C.ar    1  UNL1        0.0296
     40 C         143.1537  134.4736  156.9716 C.ar    1  UNL1        0.1399
     41 F         144.1588  133.6370  157.7062 F       1  UNL1       -0.2042
     42 C         143.0008  135.9280  157.3056 C.ar    1  UNL1        0.0273
@<TRIPOS>BOND
     1     1     2    1
     2     2     3   ar
     3     3    11    1
     4    11    12   am
     5    12    13    2
     6    12    15    1
     7    15    16    1
     8    17    16    1
     9    17    18    1
    10    18    19    1
    11    19    20    1
    12    20    21    1
    13    21    22    1
    14     3     4   ar
    15     4     5   ar
    16     5     6   ar
    17     6     7   ar
    18     7     8   ar
    19     8     9   ar
    20     9    24    1
    21    24    26    1
    22    26    27   ar
    23    27    28   ar
    24    28    29   ar
    25    29    30   ar
    26    30    31   ar
    27    31    32   ar
    28    32    33   ar
    29    33    35    1
    30    35    36    1
    31    36    37   ar
    32    37    38   ar
    33    38    39   ar
    34    39    40   ar
    35    40    41    1
    36    40    42   ar
    37    30    34   ar
    38     9    10   ar
    39    10     2   ar
    40    22    17    1
    41    10     5   ar
    42    34    26   ar
    43    33    29   ar
    44    42    36   ar
    45    11    14    1
    46    22    23    1
    47    24    25    1
@<TRIPOS>MOLECULE
*****
 42 47 0 0 0
SMALL
GASTEIGER

@<TRIPOS>ATOM
      1 C         138.3248  142.3695  159.2918 C.3     1  UNL1        0.0341
      2 C         139.2855  142.6805  158.1826 C.ar    1  UNL1        0.0137
      3 C         139.4617  141.8886  156.9209 C.ar    1  UNL1        0.0699
      4 C         140.5238  142.5566  156.0990 C.ar    1  UNL1        0.1149
      5 N         141.0040  143.7614  156.8526 N.ar    1  UNL1       -0.2230
      6 N         142.0393  144.7986  156.5326 N.ar    1  UNL1       -0.1422
      7 C         142.3092  145.9123  157.5005 C.ar    1  UNL1        0.2211
      8 N         141.5439  145.9888  158.7883 N.ar    1  UNL1       -0.2060
      9 C         140.5086  144.9516  159.1082 C.ar    1  UNL1        0.1515
     10 C         140.2387  143.8379  158.1404 C.ar    1  UNL1        0.1118
     11 N         138.7081  140.6467  156.5469 N.am    1  UNL1       -0.2487
     12 C         137.3216  140.7516  155.9843 C.2     1  UNL1        0.4055
     13 O         136.6886  142.0984  155.7957 O.2     1  UNL1       -0.2261
     14 H         139.1236  139.7628  156.6707 H       1  UNL1        0.1582
     15 O         136.5680  139.5098  155.6103 O.3     1  UNL1       -0.4329
     16 C         135.2314  139.6174  154.9380 C.3     1  UNL1        0.2282
     17 C         133.9792  139.6685  155.7622 C.3     1  UNL1        0.1284
     18 C         133.0600  140.8492  155.6575 C.3     1  UNL1        0.1616
     19 O         131.8078  140.9003  156.4817 O.3     1  UNL1       -0.3507
     20 C         131.4749  139.7706  157.4108 C.3     1  UNL1        0.1592
     21 C         132.3941  138.5899  157.5155 C.3     1  UNL1        0.1012
     22 N         133.6463  138.5389  156.6912 N.3     1  UNL1       -0.2914
     23 H         133.5890  137.6954  156.1205 H       1  UNL1        0.1235
     24 N         139.7433  145.0282  160.3960 N.pl3   1  UNL1       -0.2967
     25 H         138.9463  145.6024  160.4616 H       1  UNL1        0.1537
     26 C         140.1923  144.2299  161.5839 C.ar    1  UNL1        0.0495
     27 C         139.2223  143.9095  162.6823 C.ar    1  UNL1        0.0162
     28 C         139.6713  143.1112  163.8702 C.ar    1  UNL1        0.0201
     29 C         141.0903  142.6333  163.9597 C.ar    1  UNL1        0.0798
     30 C         142.0603  142.9536  162.8614 C.ar    1  UNL1        0.0394
     31 C         143.3857  142.3519  163.2233 C.ar    1  UNL1        0.1216
     32 N         143.2349  141.6596  164.5454 N.ar    1  UNL1       -0.1674
     33 N         141.8162  141.8335  165.0005 N.ar    1  UNL1       -0.2464
     34 C         141.6113  143.7519  161.6734 C.ar    1  UNL1        0.0177
     35 C         141.2269  141.3011  166.2731 C.3     1  UNL1        0.1538
     36 C         141.5933  141.9241  167.5874 C.ar    1  UNL1        0.0043
     37 C         142.9190  141.6179  168.2190 C.ar    1  UNL1       -0.0022
     38 C         143.2855  142.2409  169.5334 C.ar    1  UNL1        0.0020
     39 C         142.3262  143.1703  170.2162 C.ar    1  UNL1        0.0296
     40 C         141.0006  143.4765  169.5846 C.ar    1  UNL1        0.1399
     41 F         140.0415  144.4059  170.2675 F       1  UNL1       -0.2042
     42 C         140.6342  142.8535  168.2703 C.ar    1  UNL1        0.0273
@<TRIPOS>BOND
     1     1     2    1
     2     2     3   ar
     3     3    11    1
     4    11    12   am
     5    12    13    2
     6    12    15    1
     7    15    16    1
     8    17    16    1
     9    17    18    1
    10    18    19    1
    11    19    20    1
    12    20    21    1
    13    21    22    1
    14     3     4   ar
    15     4     5   ar
    16     5     6   ar
    17     6     7   ar
    18     7     8   ar
    19     8     9   ar
    20     9    24    1
    21    24    26    1
    22    26    27   ar
    23    27    28   ar
    24    28    29   ar
    25    29    30   ar
    26    30    31   ar
    27    31    32   ar
    28    32    33   ar
    29    33    35    1
    30    35    36    1
    31    36    37   ar
    32    37    38   ar
    33    38    39   ar
    34    39    40   ar
    35    40    41    1
    36    40    42   ar
    37    30    34   ar
    38     9    10   ar
    39    10     2   ar
    40    22    17    1
    41    10     5   ar
    42    34    26   ar
    43    33    29   ar
    44    42    36   ar
    45    11    14    1
    46    22    23    1
    47    24    25    1
@<TRIPOS>MOLECULE
*****
 42 47 0 0 0
SMALL
GASTEIGER

@<TRIPOS>ATOM
      1 C         142.8900  141.6174  162.2783 C.3     1  UNL1        0.0341
      2 C         142.5324  141.2906  160.8587 C.ar    1  UNL1        0.0137
      3 C         142.0370  142.2616  159.8284 C.ar    1  UNL1        0.0699
      4 C         141.8059  141.5065  158.5531 C.ar    1  UNL1        0.1149
      5 N         142.1585  140.0688  158.7953 N.ar    1  UNL1       -0.2230
      6 N         142.1288  138.8639  157.9023 N.ar    1  UNL1       -0.1422
      7 C         142.5480  137.5256  158.4344 C.ar    1  UNL1        0.2211
      8 N         142.9971  137.3922  159.8594 N.ar    1  UNL1       -0.2060
      9 C         143.0268  138.5971  160.7523 C.ar    1  UNL1        0.1515
     10 C         142.6075  139.9354  160.2202 C.ar    1  UNL1        0.1118
     11 N         141.8121  143.7300  160.0367 N.am    1  UNL1       -0.2487
     12 C         140.4153  144.2711  160.1153 C.2     1  UNL1        0.4055
     13 O         139.2433  143.3438  159.9855 O.2     1  UNL1       -0.2261
     14 H         142.5812  144.3386  160.1219 H       1  UNL1        0.1582
     15 O         140.1904  145.7394  160.3237 O.3     1  UNL1       -0.4329
     16 C         139.6757  146.2398  161.6408 C.3     1  UNL1        0.2282
     17 C         139.2301  145.2658  162.6909 C.3     1  UNL1        0.1284
     18 C         140.1250  144.9556  163.8541 C.3     1  UNL1        0.1616
     19 O         139.6794  143.9815  164.9042 O.3     1  UNL1       -0.3507
     20 C         138.3390  143.3177  164.7911 C.3     1  UNL1        0.1592
     21 C         137.4442  143.6280  163.6279 C.3     1  UNL1        0.1012
     22 N         137.8898  144.6020  162.5778 N.3     1  UNL1       -0.2914
     23 H         137.1935  145.3469  162.5527 H       1  UNL1        0.1235
     24 N         143.4758  138.4636  162.1773 N.pl3   1  UNL1       -0.2967
     25 H         144.4105  138.2293  162.3790 H       1  UNL1        0.1537
     26 C         142.5008  138.6873  163.2949 C.ar    1  UNL1        0.0495
     27 C         142.9996  138.9133  164.6915 C.ar    1  UNL1        0.0162
     28 C         142.0246  139.1370  165.8091 C.ar    1  UNL1        0.0201
     29 C         140.5507  139.1346  165.5304 C.ar    1  UNL1        0.0798
     30 C         140.0519  138.9086  164.1340 C.ar    1  UNL1        0.0394
     31 C         138.5531  138.9603  164.1630 C.ar    1  UNL1        0.1216
     32 N         138.1256  139.2182  165.5775 N.ar    1  UNL1       -0.1674
     33 N         139.3602  139.3260  166.4225 N.ar    1  UNL1       -0.2464
     34 C         141.0269  138.6849  163.0162 C.ar    1  UNL1        0.0177
     35 C         139.3977  139.5804  167.9004 C.3     1  UNL1        0.1538
     36 C         140.3739  140.5684  168.4667 C.ar    1  UNL1        0.0043
     37 C         140.1599  142.0383  168.2577 C.ar    1  UNL1       -0.0022
     38 C         141.1361  143.0264  168.8239 C.ar    1  UNL1        0.0020
     39 C         142.3263  142.5446  169.5993 C.ar    1  UNL1        0.0296
     40 C         142.5403  141.0748  169.8084 C.ar    1  UNL1        0.1399
     41 F         143.7306  140.5931  170.5838 F       1  UNL1       -0.2042
     42 C         141.5641  140.0867  169.2421 C.ar    1  UNL1        0.0273
@<TRIPOS>BOND
     1     1     2    1
     2     2     3   ar
     3     3    11    1
     4    11    12   am
     5    12    13    2
     6    12    15    1
     7    15    16    1
     8    17    16    1
     9    17    18    1
    10    18    19    1
    11    19    20    1
    12    20    21    1
    13    21    22    1
    14     3     4   ar
    15     4     5   ar
    16     5     6   ar
    17     6     7   ar
    18     7     8   ar
    19     8     9   ar
    20     9    24    1
    21    24    26    1
    22    26    27   ar
    23    27    28   ar
    24    28    29   ar
    25    29    30   ar
    26    30    31   ar
    27    31    32   ar
    28    32    33   ar
    29    33    35    1
    30    35    36    1
    31    36    37   ar
    32    37    38   ar
    33    38    39   ar
    34    39    40   ar
    35    40    41    1
    36    40    42   ar
    37    30    34   ar
    38     9    10   ar
    39    10     2   ar
    40    22    17    1
    41    10     5   ar
    42    34    26   ar
    43    33    29   ar
    44    42    36   ar
    45    11    14    1
    46    22    23    1
    47    24    25    1
