@<TRIPOS>MOLECULE
*****
 23 26 0 0 0
SMALL
GASTEIGER

@<TRIPOS>ATOM
      1 C         138.5076  138.9691  165.8264 C.ar    1  UNL1        0.1477
      2 C         138.1862  140.1001  164.8949 C.ar    1  UNL1        0.0373
      3 C         138.2042  139.8782  163.4116 C.ar    1  UNL1        0.0002
      4 C         138.5436  138.5253  162.8596 C.ar    1  UNL1       -0.0059
      5 C         138.8650  137.3944  163.7911 C.ar    1  UNL1        0.0002
      6 C         138.8470  137.6163  165.2745 C.ar    1  UNL1        0.0373
      7 O         138.4896  139.1909  167.3098 O.3     1  UNL1       -0.4313
      8 C         143.5540  142.5462  169.4776 C.ar    1  UNL1        0.0016
      9 C         142.7072  142.6948  170.7067 C.ar    1  UNL1        0.0006
     10 C         141.3428  142.0737  170.7572 C.ar    1  UNL1        0.0081
     11 C         140.8251  141.3040  169.5784 C.ar    1  UNL1        0.0515
     12 S         139.5300  140.5862  169.3386 S.2     1  UNL1       -0.0283
     13 C         139.5763  139.9940  167.9613 C.ar    1  UNL1        0.2628
     14 N         140.9001  140.3457  167.3498 N.ar    1  UNL1       -0.2050
     15 C         141.6719  141.1553  168.3493 C.ar    1  UNL1        0.0910
     16 C         143.0363  141.7764  168.2988 C.ar    1  UNL1        0.0197
     17 C         138.5616  138.3034  161.3762 C.3     1  UNL1        0.0991
     18 N         139.8631  138.3230  160.6307 N.3     1  UNL1       -0.2690
     19 C         139.8768  138.5760  159.1523 C.3     1  UNL1        0.0724
     20 C         141.1783  138.5956  158.4067 C.3     1  UNL1        0.0174
     21 C         142.4661  138.3623  159.1397 C.3     1  UNL1        0.0029
     22 C         142.4523  138.1093  160.6182 C.3     1  UNL1        0.0174
     23 C         141.1509  138.0897  161.3636 C.3     1  UNL1        0.0724
@<TRIPOS>BOND
     1     8     9   ar
     2     9    10   ar
     3    10    11   ar
     4    11    12   ar
     5    12    13   ar
     6    13     7    1
     7     7     1    1
     8     1     2   ar
     9     2     3   ar
    10     3     4   ar
    11     4    17    1
    12    17    18    1
    13    18    19    1
    14    19    20    1
    15    20    21    1
    16    21    22    1
    17    22    23    1
    18     4     5   ar
    19     5     6   ar
    20    13    14   ar
    21    14    15   ar
    22    15    16   ar
    23    16     8   ar
    24    15    11   ar
    25     6     1   ar
    26    23    18    1
@<TRIPOS>MOLECULE
*****
 23 26 0 0 0
SMALL
GASTEIGER

@<TRIPOS>ATOM
      1 C         138.4964  139.0079  165.7175 C.ar    1  UNL1        0.1477
      2 C         138.1661  140.1545  164.8085 C.ar    1  UNL1        0.0373
      3 C         138.1942  139.9645  163.3209 C.ar    1  UNL1        0.0002
      4 C         138.5526  138.6278  162.7422 C.ar    1  UNL1       -0.0059
      5 C         138.8829  137.4812  163.6511 C.ar    1  UNL1        0.0002
      6 C         138.8548  137.6712  165.1388 C.ar    1  UNL1        0.0373
      7 O         138.4683  139.1979  167.2051 O.3     1  UNL1       -0.4313
      8 C         142.6235  142.7163  170.6634 C.ar    1  UNL1        0.0016
      9 C         143.5487  142.4297  169.5181 C.ar    1  UNL1        0.0006
     10 C         143.0750  141.6020  168.3603 C.ar    1  UNL1        0.0081
     11 C         141.6760  141.0609  168.3478 C.ar    1  UNL1        0.0515
     12 S         140.9336  140.2208  167.3514 S.2     1  UNL1       -0.0283
     13 C         139.5496  139.9882  167.8808 C.ar    1  UNL1        0.2628
     14 N         139.4365  140.6846  169.2045 N.ar    1  UNL1       -0.2050
     15 C         140.7508  141.3476  169.4931 C.ar    1  UNL1        0.0910
     16 C         141.2246  142.1753  170.6509 C.ar    1  UNL1        0.0197
     17 C         138.5808  138.4377  161.2545 C.3     1  UNL1        0.0991
     18 N         139.8936  138.3571  160.5334 N.3     1  UNL1       -0.2690
     19 C         139.9377  138.4835  159.0394 C.3     1  UNL1        0.0724
     20 C         141.2506  138.4029  158.3183 C.3     1  UNL1        0.0174
     21 C         142.5193  138.1958  159.0913 C.3     1  UNL1        0.0029
     22 C         142.4752  138.0693  160.5853 C.3     1  UNL1        0.0174
     23 C         141.1624  138.1499  161.3063 C.3     1  UNL1        0.0724
@<TRIPOS>BOND
     1     8     9   ar
     2     9    10   ar
     3    10    11   ar
     4    11    12   ar
     5    12    13   ar
     6    13     7    1
     7     7     1    1
     8     1     2   ar
     9     2     3   ar
    10     3     4   ar
    11     4    17    1
    12    17    18    1
    13    18    19    1
    14    19    20    1
    15    20    21    1
    16    21    22    1
    17    22    23    1
    18     4     5   ar
    19     5     6   ar
    20    13    14   ar
    21    14    15   ar
    22    15    16   ar
    23    16     8   ar
    24    15    11   ar
    25     6     1   ar
    26    23    18    1
@<TRIPOS>MOLECULE
*****
 23 26 0 0 0
SMALL
GASTEIGER

@<TRIPOS>ATOM
      1 C         138.8901  138.2799  165.3154 C.ar    1  UNL1        0.1477
      2 C         137.8313  138.1681  166.3721 C.ar    1  UNL1        0.0373
      3 C         137.9919  138.8947  167.6745 C.ar    1  UNL1        0.0002
      4 C         139.2113  139.7331  167.9202 C.ar    1  UNL1       -0.0059
      5 C         140.2700  139.8448  166.8635 C.ar    1  UNL1        0.0002
      6 C         140.1094  139.1182  165.5611 C.ar    1  UNL1        0.0373
      7 O         138.7295  137.5533  164.0130 O.3     1  UNL1       -0.4313
      8 C         143.0207  138.5088  159.2931 C.ar    1  UNL1        0.0016
      9 C         142.0022  139.4960  158.8053 C.ar    1  UNL1        0.0006
     10 C         140.7260  139.6957  159.5679 C.ar    1  UNL1        0.0081
     11 C         140.4684  138.9083  160.8183 C.ar    1  UNL1        0.0515
     12 S         139.3115  138.8907  161.7729 S.2     1  UNL1       -0.0283
     13 C         139.6151  137.8926  162.8507 C.ar    1  UNL1        0.2628
     14 N         140.9596  137.2934  162.5623 N.ar    1  UNL1       -0.2050
     15 C         141.4870  137.9212  161.3061 C.ar    1  UNL1        0.0910
     16 C         142.7631  137.7214  160.5435 C.ar    1  UNL1        0.0197
     17 C         139.3719  140.4596  169.2226 C.3     1  UNL1        0.0991
     18 N         140.6548  141.1737  169.5299 N.3     1  UNL1       -0.2690
     19 C         140.6704  142.6686  169.6524 C.3     1  UNL1        0.0724
     20 C         141.9533  143.3826  169.9597 C.3     1  UNL1        0.0174
     21 C         143.2206  142.6017  170.1443 C.3     1  UNL1        0.0029
     22 C         143.2050  141.1068  170.0217 C.3     1  UNL1        0.0174
     23 C         141.9222  140.3928  169.7145 C.3     1  UNL1        0.0724
@<TRIPOS>BOND
     1     8     9   ar
     2     9    10   ar
     3    10    11   ar
     4    11    12   ar
     5    12    13   ar
     6    13     7    1
     7     7     1    1
     8     1     2   ar
     9     2     3   ar
    10     3     4   ar
    11     4    17    1
    12    17    18    1
    13    18    19    1
    14    19    20    1
    15    20    21    1
    16    21    22    1
    17    22    23    1
    18     4     5   ar
    19     5     6   ar
    20    13    14   ar
    21    14    15   ar
    22    15    16   ar
    23    16     8   ar
    24    15    11   ar
    25     6     1   ar
    26    23    18    1
@<TRIPOS>MOLECULE
*****
 23 26 0 0 0
SMALL
GASTEIGER

@<TRIPOS>ATOM
      1 C         144.1685  139.6324  164.1852 C.ar    1  UNL1        0.1477
      2 C         143.5815  139.2546  162.8574 C.ar    1  UNL1        0.0373
      3 C         143.7555  140.1613  161.6752 C.ar    1  UNL1        0.0002
      4 C         144.5166  141.4457  161.8206 C.ar    1  UNL1       -0.0059
      5 C         145.1036  141.8234  163.1483 C.ar    1  UNL1        0.0002
      6 C         144.9295  140.9168  164.3306 C.ar    1  UNL1        0.0373
      7 O         143.9945  138.7258  165.3674 O.3     1  UNL1       -0.4313
      8 C         140.3167  140.0241  170.5048 C.ar    1  UNL1        0.0016
      9 C         139.3321  140.4751  169.4670 C.ar    1  UNL1        0.0006
     10 C         139.6854  140.3917  168.0116 C.ar    1  UNL1        0.0081
     11 C         141.0232  139.8572  167.5940 C.ar    1  UNL1        0.0515
     12 S         141.6476  139.6572  166.2449 S.2     1  UNL1       -0.0283
     13 C         143.0181  139.0826  166.4489 C.ar    1  UNL1        0.2628
     14 N         143.2407  138.9274  167.9241 N.ar    1  UNL1       -0.2050
     15 C         142.0078  139.4061  168.6318 C.ar    1  UNL1        0.0910
     16 C         141.6545  139.4895  170.0872 C.ar    1  UNL1        0.0197
     17 C         144.6906  142.3523  160.6384 C.3     1  UNL1        0.0991
     18 N         143.5507  143.2118  160.1781 N.3     1  UNL1       -0.2690
     19 C         142.6309  143.8392  161.1833 C.3     1  UNL1        0.0724
     20 C         141.4910  144.6987  160.7230 C.3     1  UNL1        0.0174
     21 C         141.2708  144.9308  159.2575 C.3     1  UNL1        0.0029
     22 C         142.1905  144.3033  158.2523 C.3     1  UNL1        0.0174
     23 C         143.3305  143.4439  158.7126 C.3     1  UNL1        0.0724
@<TRIPOS>BOND
     1     8     9   ar
     2     9    10   ar
     3    10    11   ar
     4    11    12   ar
     5    12    13   ar
     6    13     7    1
     7     7     1    1
     8     1     2   ar
     9     2     3   ar
    10     3     4   ar
    11     4    17    1
    12    17    18    1
    13    18    19    1
    14    19    20    1
    15    20    21    1
    16    21    22    1
    17    22    23    1
    18     4     5   ar
    19     5     6   ar
    20    13    14   ar
    21    14    15   ar
    22    15    16   ar
    23    16     8   ar
    24    15    11   ar
    25     6     1   ar
    26    23    18    1
@<TRIPOS>MOLECULE
*****
 23 26 0 0 0
SMALL
GASTEIGER

@<TRIPOS>ATOM
      1 C         138.4457  138.9091  165.4806 C.ar    1  UNL1        0.1477
      2 C         138.0452  140.0167  164.5518 C.ar    1  UNL1        0.0373
      3 C         138.2132  139.8510  163.0705 C.ar    1  UNL1        0.0002
      4 C         138.7819  138.5776  162.5180 C.ar    1  UNL1       -0.0059
      5 C         139.1824  137.4700  163.4468 C.ar    1  UNL1        0.0002
      6 C         139.0143  137.6357  164.9281 C.ar    1  UNL1        0.0373
      7 O         138.2777  139.0748  166.9619 O.3     1  UNL1       -0.4313
      8 C         142.2740  142.1715  170.9674 C.ar    1  UNL1        0.0016
      9 C         142.9847  142.5341  169.6972 C.ar    1  UNL1        0.0006
     10 C         142.4576  142.0507  168.3787 C.ar    1  UNL1        0.0081
     11 C         141.2199  141.2047  168.3304 C.ar    1  UNL1        0.0515
     12 S         140.4704  140.5868  167.1873 S.2     1  UNL1       -0.0283
     13 C         139.2966  139.8423  167.7511 C.ar    1  UNL1        0.2628
     14 N         139.3206  140.0001  169.2426 N.ar    1  UNL1       -0.2050
     15 C         140.5093  140.8421  169.6006 C.ar    1  UNL1        0.0910
     16 C         141.0364  141.3255  170.9191 C.ar    1  UNL1        0.0197
     17 C         138.9499  138.4119  161.0367 C.3     1  UNL1        0.0991
     18 N         139.1856  139.6130  160.1696 N.3     1  UNL1       -0.2690
     19 C         138.0567  140.1953  159.3718 C.3     1  UNL1        0.0724
     20 C         138.2924  141.3964  158.5047 C.3     1  UNL1        0.0174
     21 C         139.6571  142.0153  158.4355 C.3     1  UNL1        0.0029
     22 C         140.7860  141.4330  159.2334 C.3     1  UNL1        0.0174
     23 C         140.5503  140.2319  160.1004 C.3     1  UNL1        0.0724
@<TRIPOS>BOND
     1     8     9   ar
     2     9    10   ar
     3    10    11   ar
     4    11    12   ar
     5    12    13   ar
     6    13     7    1
     7     7     1    1
     8     1     2   ar
     9     2     3   ar
    10     3     4   ar
    11     4    17    1
    12    17    18    1
    13    18    19    1
    14    19    20    1
    15    20    21    1
    16    21    22    1
    17    22    23    1
    18     4     5   ar
    19     5     6   ar
    20    13    14   ar
    21    14    15   ar
    22    15    16   ar
    23    16     8   ar
    24    15    11   ar
    25     6     1   ar
    26    23    18    1
@<TRIPOS>MOLECULE
*****
 23 26 0 0 0
SMALL
GASTEIGER

@<TRIPOS>ATOM
      1 C         139.2205  143.8155  163.7874 C.ar    1  UNL1        0.1477
      2 C         138.2969  142.6767  163.4711 C.ar    1  UNL1        0.0373
      3 C         138.2681  141.4663  164.3566 C.ar    1  UNL1        0.0002
      4 C         139.1629  141.3948  165.5585 C.ar    1  UNL1       -0.0059
      5 C         140.0864  142.5337  165.8747 C.ar    1  UNL1        0.0002
      6 C         140.1152  143.7440  164.9891 C.ar    1  UNL1        0.0373
      7 O         139.2493  145.0259  162.9018 O.3     1  UNL1       -0.4313
      8 C         141.7507  145.3138  156.9634 C.ar    1  UNL1        0.0016
      9 C         142.6421  144.2214  157.4753 C.ar    1  UNL1        0.0006
     10 C         142.4902  143.7276  158.8836 C.ar    1  UNL1        0.0081
     11 C         141.4470  144.3261  159.7798 C.ar    1  UNL1        0.0515
     12 S         141.0661  144.0461  161.2034 S.2     1  UNL1       -0.0283
     13 C         139.9394  144.9654  161.5712 C.ar    1  UNL1        0.2628
     14 N         139.6238  145.8137  160.3750 N.ar    1  UNL1       -0.2050
     15 C         140.5556  145.4185  159.2679 C.ar    1  UNL1        0.0910
     16 C         140.7075  145.9124  157.8597 C.ar    1  UNL1        0.0197
     17 C         139.1340  140.1845  166.4440 C.3     1  UNL1        0.0991
     18 N         140.2369  139.9532  167.4342 N.3     1  UNL1       -0.2690
     19 C         141.6003  139.5487  166.9573 C.3     1  UNL1        0.0724
     20 C         142.7031  139.3174  167.9474 C.3     1  UNL1        0.0174
     21 C         142.4425  139.4906  169.4144 C.3     1  UNL1        0.0029
     22 C         141.0789  139.8950  169.8913 C.3     1  UNL1        0.0174
     23 C         139.9762  140.1263  168.9012 C.3     1  UNL1        0.0724
@<TRIPOS>BOND
     1     8     9   ar
     2     9    10   ar
     3    10    11   ar
     4    11    12   ar
     5    12    13   ar
     6    13     7    1
     7     7     1    1
     8     1     2   ar
     9     2     3   ar
    10     3     4   ar
    11     4    17    1
    12    17    18    1
    13    18    19    1
    14    19    20    1
    15    20    21    1
    16    21    22    1
    17    22    23    1
    18     4     5   ar
    19     5     6   ar
    20    13    14   ar
    21    14    15   ar
    22    15    16   ar
    23    16     8   ar
    24    15    11   ar
    25     6     1   ar
    26    23    18    1
@<TRIPOS>MOLECULE
*****
 23 26 0 0 0
SMALL
GASTEIGER

@<TRIPOS>ATOM
      1 C         140.0244  138.5375  158.5233 C.ar    1  UNL1        0.1477
      2 C         141.4073  138.5348  159.1044 C.ar    1  UNL1        0.0373
      3 C         142.5144  137.8058  158.4024 C.ar    1  UNL1        0.0002
      4 C         142.2385  137.0793  157.1193 C.ar    1  UNL1       -0.0059
      5 C         140.8557  137.0820  156.5383 C.ar    1  UNL1        0.0002
      6 C         139.7486  137.8111  157.2403 C.ar    1  UNL1        0.0373
      7 O         138.9173  139.2666  159.2253 O.3     1  UNL1       -0.4313
      8 C         138.6653  138.2640  165.5921 C.ar    1  UNL1        0.0016
      9 C         138.2008  139.6899  165.6215 C.ar    1  UNL1        0.0006
     10 C         138.0667  140.4616  164.3423 C.ar    1  UNL1        0.0081
     11 C         138.3972  139.8074  163.0336 C.ar    1  UNL1        0.0515
     12 S         138.3615  140.3125  161.6216 S.2     1  UNL1       -0.0283
     13 C         138.8039  139.1987  160.7195 C.ar    1  UNL1        0.2628
     14 N         139.1131  138.0053  161.5739 N.ar    1  UNL1       -0.2050
     15 C         138.8617  138.3815  163.0041 C.ar    1  UNL1        0.0910
     16 C         138.9958  137.6098  164.2834 C.ar    1  UNL1        0.0197
     17 C         143.3456  136.3502  156.4173 C.3     1  UNL1        0.0991
     18 N         143.2138  134.8839  156.1297 N.3     1  UNL1       -0.2690
     19 C         142.8989  134.4177  154.7392 C.3     1  UNL1        0.0724
     20 C         142.7670  132.9515  154.4515 C.3     1  UNL1        0.0174
     21 C         142.9500  131.9514  155.5544 C.3     1  UNL1        0.0029
     22 C         143.2650  132.4176  156.9450 C.3     1  UNL1        0.0174
     23 C         143.3968  133.8839  157.2326 C.3     1  UNL1        0.0724
@<TRIPOS>BOND
     1     8     9   ar
     2     9    10   ar
     3    10    11   ar
     4    11    12   ar
     5    12    13   ar
     6    13     7    1
     7     7     1    1
     8     1     2   ar
     9     2     3   ar
    10     3     4   ar
    11     4    17    1
    12    17    18    1
    13    18    19    1
    14    19    20    1
    15    20    21    1
    16    21    22    1
    17    22    23    1
    18     4     5   ar
    19     5     6   ar
    20    13    14   ar
    21    14    15   ar
    22    15    16   ar
    23    16     8   ar
    24    15    11   ar
    25     6     1   ar
    26    23    18    1
@<TRIPOS>MOLECULE
*****
 23 26 0 0 0
SMALL
GASTEIGER

@<TRIPOS>ATOM
      1 C         138.2730  140.0282  164.5745 C.ar    1  UNL1        0.1477
      2 C         138.5238  139.4283  163.2227 C.ar    1  UNL1        0.0373
      3 C         138.4120  140.2790  161.9923 C.ar    1  UNL1        0.0002
      4 C         138.0495  141.7295  162.1137 C.ar    1  UNL1       -0.0059
      5 C         137.7988  142.3293  163.4655 C.ar    1  UNL1        0.0002
      6 C         137.9105  141.4786  164.6959 C.ar    1  UNL1        0.0373
      7 O         138.3847  139.1775  165.8049 O.3     1  UNL1       -0.4313
      8 C         141.9011  140.7494  170.9788 C.ar    1  UNL1        0.0016
      9 C         143.0031  140.8868  169.9706 C.ar    1  UNL1        0.0006
     10 C         142.7294  140.6229  168.5196 C.ar    1  UNL1        0.0081
     11 C         141.3537  140.2215  168.0768 C.ar    1  UNL1        0.0515
     12 S         140.7885  139.8986  166.7254 S.2     1  UNL1       -0.0283
     13 C         139.3371  139.5616  166.8984 C.ar    1  UNL1        0.2628
     14 N         139.0052  139.6762  168.3567 N.ar    1  UNL1       -0.2050
     15 C         140.2516  140.0841  169.0850 C.ar    1  UNL1        0.0910
     16 C         140.5253  140.3480  170.5360 C.ar    1  UNL1        0.0197
     17 C         137.9378  142.5802  160.8833 C.3     1  UNL1        0.0991
     18 N         139.1222  143.3670  160.4054 N.3     1  UNL1       -0.2690
     19 C         139.7993  144.3374  161.3272 C.3     1  UNL1        0.0724
     20 C         140.9837  145.1242  160.8493 C.3     1  UNL1        0.0174
     21 C         141.4908  144.9405  159.4496 C.3     1  UNL1        0.0029
     22 C         140.8135  143.9701  158.5278 C.3     1  UNL1        0.0174
     23 C         139.6293  143.1833  159.0057 C.3     1  UNL1        0.0724
@<TRIPOS>BOND
     1     8     9   ar
     2     9    10   ar
     3    10    11   ar
     4    11    12   ar
     5    12    13   ar
     6    13     7    1
     7     7     1    1
     8     1     2   ar
     9     2     3   ar
    10     3     4   ar
    11     4    17    1
    12    17    18    1
    13    18    19    1
    14    19    20    1
    15    20    21    1
    16    21    22    1
    17    22    23    1
    18     4     5   ar
    19     5     6   ar
    20    13    14   ar
    21    14    15   ar
    22    15    16   ar
    23    16     8   ar
    24    15    11   ar
    25     6     1   ar
    26    23    18    1
@<TRIPOS>MOLECULE
*****
 23 26 0 0 0
SMALL
GASTEIGER

@<TRIPOS>ATOM
      1 C         144.0717  140.0027  162.2600 C.ar    1  UNL1        0.1477
      2 C         143.6381  139.4352  160.9409 C.ar    1  UNL1        0.0373
      3 C         143.7367  140.2681  159.6973 C.ar    1  UNL1        0.0002
      4 C         144.2690  141.6685  159.7728 C.ar    1  UNL1       -0.0059
      5 C         144.7026  142.2359  161.0919 C.ar    1  UNL1        0.0002
      6 C         144.6040  141.4030  162.3355 C.ar    1  UNL1        0.0373
      7 O         143.9730  139.1698  163.5036 O.3     1  UNL1       -0.4313
      8 C         138.6020  139.2891  167.0733 C.ar    1  UNL1        0.0016
      9 C         138.1914  138.1577  166.1782 C.ar    1  UNL1        0.0006
     10 C         139.1169  137.6825  165.0975 C.ar    1  UNL1        0.0081
     11 C         140.4529  138.3387  164.9120 C.ar    1  UNL1        0.0515
     12 S         141.5677  138.0885  163.9402 S.2     1  UNL1       -0.0283
     13 C         142.6674  139.0653  164.2347 C.ar    1  UNL1        0.2628
     14 N         142.2321  139.9192  165.3886 N.ar    1  UNL1       -0.2050
     15 C         140.8635  139.4701  165.8072 C.ar    1  UNL1        0.0910
     16 C         139.9381  139.9453  166.8878 C.ar    1  UNL1        0.0197
     17 C         144.3677  142.5014  158.5292 C.3     1  UNL1        0.0991
     18 N         145.3990  142.1772  157.4893 N.3     1  UNL1       -0.2690
     19 C         145.0941  141.1718  156.4186 C.3     1  UNL1        0.0724
     20 C         146.1254  140.8476  155.3786 C.3     1  UNL1        0.0174
     21 C         147.4615  141.5288  155.4094 C.3     1  UNL1        0.0029
     22 C         147.7663  142.5342  156.4802 C.3     1  UNL1        0.0174
     23 C         146.7350  142.8583  157.5200 C.3     1  UNL1        0.0724
@<TRIPOS>BOND
     1     8     9   ar
     2     9    10   ar
     3    10    11   ar
     4    11    12   ar
     5    12    13   ar
     6    13     7    1
     7     7     1    1
     8     1     2   ar
     9     2     3   ar
    10     3     4   ar
    11     4    17    1
    12    17    18    1
    13    18    19    1
    14    19    20    1
    15    20    21    1
    16    21    22    1
    17    22    23    1
    18     4     5   ar
    19     5     6   ar
    20    13    14   ar
    21    14    15   ar
    22    15    16   ar
    23    16     8   ar
    24    15    11   ar
    25     6     1   ar
    26    23    18    1
