@<TRIPOS>MOLECULE
*****
 29 31 0 0 0
SMALL
GASTEIGER

@<TRIPOS>ATOM
      1 N         140.1225  137.7573  164.2861 N.3     1  UNL1       -0.2700
      2 C         141.4526  138.0291  164.9238 C.3     1  UNL1        0.0897
      3 C         142.6779  138.1729  164.0707 C.3     1  UNL1        0.0897
      4 N         142.5731  138.0447  162.5798 N.3     1  UNL1       -0.2700
      5 C         141.2429  137.7728  161.9421 C.3     1  UNL1        0.0897
      6 C         140.0176  137.6291  162.7953 C.3     1  UNL1        0.0897
      7 C         138.8971  137.6135  165.1393 C.3     1  UNL1        0.0765
      8 C         137.6145  138.6376  167.1533 C.3     1  UNL1        0.0061
      9 C         138.3313  138.8090  165.8468 C.3     1  UNL1        0.0383
     10 C         138.4824  140.1760  165.2479 C.ar    1  UNL1       -0.0208
     11 C         137.7265  140.5374  164.0038 C.ar    1  UNL1        0.0021
     12 C         137.8776  141.9044  163.4049 C.ar    1  UNL1        0.0749
     13 C         138.7846  142.9098  164.0501 C.ar    1  UNL1        0.2900
     14 C         139.5405  142.5484  165.2943 C.ar    1  UNL1        0.0749
     15 C         139.3895  141.1814  165.8932 C.ar    1  UNL1        0.0021
     16 N         138.9356  144.2768  163.4512 N.pl3   1  UNL1        0.0809
     17 O         137.8863  144.8078  162.5200 O.2     1  UNL1        0.0415
     18 O         140.1359  145.1127  163.7835 O.co2   1  UNL1       -0.5760
     19 C         143.7985  138.1885  161.7267 C.3     1  UNL1        0.0769
     20 C         144.1744  139.5313  161.1741 C.3     1  UNL1        0.0437
     21 C         144.2310  140.7259  162.0797 C.ar    1  UNL1       -0.0204
     22 C         145.1894  140.7476  163.2334 C.ar    1  UNL1        0.0021
     23 C         145.2460  141.9421  164.1389 C.ar    1  UNL1        0.0749
     24 C         144.3443  143.1148  163.8907 C.ar    1  UNL1        0.2900
     25 C         143.3859  143.0930  162.7371 C.ar    1  UNL1        0.0749
     26 C         143.3293  141.8986  161.8316 C.ar    1  UNL1        0.0021
     27 N         144.4009  144.3093  164.7963 N.pl3   1  UNL1        0.0809
     28 O         145.2296  144.2645  166.0459 O.2     1  UNL1        0.0415
     29 O         143.6289  145.5485  164.4523 O.co2   1  UNL1       -0.5760
@<TRIPOS>UNITY_ATOM_ATTR
16 1
charge 1
18 1
charge -1
27 1
charge 1
29 1
charge -1
@<TRIPOS>BOND
     1     8     9    1
     2     9     7    1
     3     7     1    1
     4     1     2    1
     5     2     3    1
     6     3     4    1
     7     4    19    1
     8    19    20    1
     9    20    21    1
    10    21    22   ar
    11    22    23   ar
    12    23    24   ar
    13    24    27    1
    14    27    28    2
    15    27    29    1
    16    24    25   ar
    17    25    26   ar
    18     4     5    1
    19     5     6    1
    20     9    10    1
    21    10    11   ar
    22    11    12   ar
    23    12    13   ar
    24    13    16    1
    25    16    17    2
    26    16    18    1
    27    13    14   ar
    28    14    15   ar
    29     6     1    1
    30    15    10   ar
    31    26    21   ar
@<TRIPOS>MOLECULE
*****
 29 31 0 0 0
SMALL
GASTEIGER

@<TRIPOS>ATOM
      1 N         142.6194  139.0868  161.8319 N.3     1  UNL1       -0.2700
      2 C         142.9662  140.3838  161.1630 C.3     1  UNL1        0.0897
      3 C         143.9425  141.3225  161.8076 C.3     1  UNL1        0.0897
      4 N         144.5721  140.9642  163.1211 N.3     1  UNL1       -0.2700
      5 C         144.2253  139.6672  163.7900 C.3     1  UNL1        0.0897
      6 C         143.2489  138.7285  163.1454 C.3     1  UNL1        0.0897
      7 C         141.6430  138.1480  161.1873 C.3     1  UNL1        0.0765
      8 C         139.2443  138.4409  160.2331 C.3     1  UNL1        0.0061
      9 C         140.1705  138.3297  161.4078 C.3     1  UNL1        0.0383
     10 C         139.6241  138.4002  162.8030 C.ar    1  UNL1       -0.0208
     11 C         139.8378  137.2574  163.7508 C.ar    1  UNL1        0.0021
     12 C         139.2915  137.3279  165.1460 C.ar    1  UNL1        0.0749
     13 C         138.5314  138.5412  165.5934 C.ar    1  UNL1        0.2900
     14 C         138.3177  139.6841  164.6456 C.ar    1  UNL1        0.0749
     15 C         138.8641  139.6136  163.2504 C.ar    1  UNL1        0.0021
     16 N         137.9851  138.6118  166.9885 N.pl3   1  UNL1        0.0809
     17 O         138.6841  139.4384  168.0269 O.2     1  UNL1        0.0415
     18 O         136.7397  137.8557  167.3454 O.co2   1  UNL1       -0.5760
     19 C         145.5484  141.9030  163.7657 C.3     1  UNL1        0.0769
     20 C         145.0585  142.9702  164.6989 C.3     1  UNL1        0.0437
     21 C         143.6381  143.4453  164.6154 C.ar    1  UNL1       -0.0204
     22 C         143.3031  144.6714  163.8189 C.ar    1  UNL1        0.0021
     23 C         141.8828  145.1465  163.7354 C.ar    1  UNL1        0.0749
     24 C         140.7975  144.3955  164.4483 C.ar    1  UNL1        0.2900
     25 C         141.1326  143.1694  165.2447 C.ar    1  UNL1        0.0749
     26 C         142.5529  142.6943  165.3283 C.ar    1  UNL1        0.0021
     27 N         139.3772  144.8707  164.3647 N.pl3   1  UNL1        0.0809
     28 O         138.6003  145.1368  165.6199 O.2     1  UNL1        0.0415
     29 O         138.7338  145.0796  163.0259 O.co2   1  UNL1       -0.5760
@<TRIPOS>UNITY_ATOM_ATTR
16 1
charge 1
18 1
charge -1
27 1
charge 1
29 1
charge -1
@<TRIPOS>BOND
     1     8     9    1
     2     9     7    1
     3     7     1    1
     4     1     2    1
     5     2     3    1
     6     3     4    1
     7     4    19    1
     8    19    20    1
     9    20    21    1
    10    21    22   ar
    11    22    23   ar
    12    23    24   ar
    13    24    27    1
    14    27    28    2
    15    27    29    1
    16    24    25   ar
    17    25    26   ar
    18     4     5    1
    19     5     6    1
    20     9    10    1
    21    10    11   ar
    22    11    12   ar
    23    12    13   ar
    24    13    16    1
    25    16    17    2
    26    16    18    1
    27    13    14   ar
    28    14    15   ar
    29     6     1    1
    30    15    10   ar
    31    26    21   ar
@<TRIPOS>MOLECULE
*****
 29 31 0 0 0
SMALL
GASTEIGER

@<TRIPOS>ATOM
      1 N         141.9424  139.4857  164.6475 N.3     1  UNL1       -0.2700
      2 C         142.0305  139.3816  163.1537 C.3     1  UNL1        0.0897
      3 C         143.1250  140.0939  162.4156 C.3     1  UNL1        0.0897
      4 N         144.1312  140.9102  163.1713 N.3     1  UNL1       -0.2700
      5 C         144.0431  141.0143  164.6650 C.3     1  UNL1        0.0897
      6 C         142.9487  140.3020  165.4031 C.3     1  UNL1        0.0897
      7 C         140.8479  138.7734  165.3857 C.3     1  UNL1        0.0765
      8 C         138.3520  139.4406  165.1111 C.3     1  UNL1        0.0061
      9 C         139.6467  139.5343  165.8630 C.3     1  UNL1        0.0383
     10 C         139.7400  140.3891  167.0921 C.ar    1  UNL1       -0.0208
     11 C         140.2890  141.7817  166.9972 C.ar    1  UNL1        0.0021
     12 C         140.3823  142.6364  168.2263 C.ar    1  UNL1        0.0749
     13 C         139.9265  142.0985  169.5503 C.ar    1  UNL1        0.2900
     14 C         139.3774  140.7058  169.6452 C.ar    1  UNL1        0.0749
     15 C         139.2841  139.8511  168.4161 C.ar    1  UNL1        0.0021
     16 N         140.0198  142.9533  170.7794 N.pl3   1  UNL1        0.0809
     17 O         140.4306  142.3441  172.0872 O.2     1  UNL1        0.0415
     18 O         139.7023  144.4172  170.7008 O.co2   1  UNL1       -0.5760
     19 C         145.2257  141.6226  162.4331 C.3     1  UNL1        0.0769
     20 C         144.9784  142.9854  161.8574 C.3     1  UNL1        0.0437
     21 C         143.5922  143.5588  161.8561 C.ar    1  UNL1       -0.0204
     22 C         143.1246  144.3930  163.0116 C.ar    1  UNL1        0.0021
     23 C         141.7385  144.9664  163.0102 C.ar    1  UNL1        0.0749
     24 C         140.8201  144.7054  161.8532 C.ar    1  UNL1        0.2900
     25 C         141.2878  143.8712  160.6977 C.ar    1  UNL1        0.0749
     26 C         142.6738  143.2979  160.6991 C.ar    1  UNL1        0.0021
     27 N         139.4339  145.2788  161.8519 N.pl3   1  UNL1        0.0809
     28 O         139.2006  146.6756  161.3573 O.2     1  UNL1        0.0415
     29 O         138.2812  144.4554  162.3451 O.co2   1  UNL1       -0.5760
@<TRIPOS>UNITY_ATOM_ATTR
16 1
charge 1
18 1
charge -1
27 1
charge 1
29 1
charge -1
@<TRIPOS>BOND
     1     8     9    1
     2     9     7    1
     3     7     1    1
     4     1     2    1
     5     2     3    1
     6     3     4    1
     7     4    19    1
     8    19    20    1
     9    20    21    1
    10    21    22   ar
    11    22    23   ar
    12    23    24   ar
    13    24    27    1
    14    27    28    2
    15    27    29    1
    16    24    25   ar
    17    25    26   ar
    18     4     5    1
    19     5     6    1
    20     9    10    1
    21    10    11   ar
    22    11    12   ar
    23    12    13   ar
    24    13    16    1
    25    16    17    2
    26    16    18    1
    27    13    14   ar
    28    14    15   ar
    29     6     1    1
    30    15    10   ar
    31    26    21   ar
@<TRIPOS>MOLECULE
*****
 29 31 0 0 0
SMALL
GASTEIGER

@<TRIPOS>ATOM
      1 N         142.0886  138.9395  164.2156 N.3     1  UNL1       -0.2700
      2 C         142.1159  139.1272  162.7277 C.3     1  UNL1        0.0897
      3 C         140.9017  138.8037  161.9086 C.3     1  UNL1        0.0897
      4 N         139.6602  138.2925  162.5773 N.3     1  UNL1       -0.2700
      5 C         139.6329  138.1048  164.0653 C.3     1  UNL1        0.0897
      6 C         140.8471  138.4283  164.8844 C.3     1  UNL1        0.0897
      7 C         143.3028  139.2630  165.0348 C.3     1  UNL1        0.0765
      8 C         143.9599  137.6161  166.9338 C.3     1  UNL1        0.0061
      9 C         143.3406  138.9090  166.4919 C.3     1  UNL1        0.0383
     10 C         142.7592  139.8477  167.5072 C.ar    1  UNL1       -0.0208
     11 C         142.4719  141.2718  167.1340 C.ar    1  UNL1        0.0021
     12 C         141.8905  142.2105  168.1493 C.ar    1  UNL1        0.0749
     13 C         141.5964  141.7251  169.5377 C.ar    1  UNL1        0.2900
     14 C         141.8836  140.3009  169.9110 C.ar    1  UNL1        0.0749
     15 C         142.4651  139.3622  168.8957 C.ar    1  UNL1        0.0021
     16 N         141.0149  142.6638  170.5530 N.pl3   1  UNL1        0.0809
     17 O         140.5850  142.1460  171.8936 O.2     1  UNL1        0.0415
     18 O         140.8634  144.1202  170.2277 O.co2   1  UNL1       -0.5760
     19 C         138.4460  137.9690  161.7581 C.3     1  UNL1        0.0769
     20 C         137.5020  139.0618  161.3524 C.3     1  UNL1        0.0437
     21 C         137.7861  140.4818  161.7435 C.ar    1  UNL1       -0.0204
     22 C         137.4198  140.9701  163.1136 C.ar    1  UNL1        0.0021
     23 C         137.7039  142.3900  163.5046 C.ar    1  UNL1        0.0749
     24 C         138.3543  143.3218  162.5254 C.ar    1  UNL1        0.2900
     25 C         138.7206  142.8336  161.1552 C.ar    1  UNL1        0.0749
     26 C         138.4365  141.4136  160.7643 C.ar    1  UNL1        0.0021
     27 N         138.6383  144.7419  162.9164 N.pl3   1  UNL1        0.0809
     28 O         138.7104  145.8092  161.8650 O.2     1  UNL1        0.0415
     29 O         138.8504  145.0945  164.3589 O.co2   1  UNL1       -0.5760
@<TRIPOS>UNITY_ATOM_ATTR
16 1
charge 1
18 1
charge -1
27 1
charge 1
29 1
charge -1
@<TRIPOS>BOND
     1     8     9    1
     2     9     7    1
     3     7     1    1
     4     1     2    1
     5     2     3    1
     6     3     4    1
     7     4    19    1
     8    19    20    1
     9    20    21    1
    10    21    22   ar
    11    22    23   ar
    12    23    24   ar
    13    24    27    1
    14    27    28    2
    15    27    29    1
    16    24    25   ar
    17    25    26   ar
    18     4     5    1
    19     5     6    1
    20     9    10    1
    21    10    11   ar
    22    11    12   ar
    23    12    13   ar
    24    13    16    1
    25    16    17    2
    26    16    18    1
    27    13    14   ar
    28    14    15   ar
    29     6     1    1
    30    15    10   ar
    31    26    21   ar
@<TRIPOS>MOLECULE
*****
 29 31 0 0 0
SMALL
GASTEIGER

@<TRIPOS>ATOM
      1 N         138.4553  141.1645  163.6673 N.3     1  UNL1       -0.2700
      2 C         139.2587  140.7587  162.4674 C.3     1  UNL1        0.0897
      3 C         139.6351  141.7809  161.4362 C.3     1  UNL1        0.0897
      4 N         139.2080  143.2089  161.6048 N.3     1  UNL1       -0.2700
      5 C         138.4046  143.6147  162.8047 C.3     1  UNL1        0.0897
      6 C         138.0282  142.5925  163.8360 C.3     1  UNL1        0.0897
      7 C         138.0789  140.1423  164.6986 C.3     1  UNL1        0.0765
      8 C         139.7719  138.2854  165.3587 C.3     1  UNL1        0.0061
      9 C         139.1185  139.6065  165.6378 C.3     1  UNL1        0.0383
     10 C         139.5047  140.3917  166.8561 C.ar    1  UNL1       -0.0208
     11 C         140.2102  141.7071  166.7080 C.ar    1  UNL1        0.0021
     12 C         140.5965  142.4923  167.9263 C.ar    1  UNL1        0.0749
     13 C         140.2772  141.9622  169.2927 C.ar    1  UNL1        0.2900
     14 C         139.5716  140.6467  169.4408 C.ar    1  UNL1        0.0749
     15 C         139.1854  139.8615  168.2225 C.ar    1  UNL1        0.0021
     16 N         140.6634  142.7474  170.5110 N.pl3   1  UNL1        0.0809
     17 O         140.5424  142.1282  171.8719 O.2     1  UNL1        0.0415
     18 O         141.1706  144.1518  170.3684 O.co2   1  UNL1       -0.5760
     19 C         139.5844  144.2311  160.5735 C.3     1  UNL1        0.0769
     20 C         140.8652  144.9993  160.7116 C.3     1  UNL1        0.0437
     21 C         141.8909  144.5726  161.7196 C.ar    1  UNL1       -0.0204
     22 C         141.8599  145.1404  163.1076 C.ar    1  UNL1        0.0021
     23 C         142.8855  144.7137  164.1156 C.ar    1  UNL1        0.0749
     24 C         143.9421  143.7191  163.7355 C.ar    1  UNL1        0.2900
     25 C         143.9730  143.1512  162.3475 C.ar    1  UNL1        0.0749
     26 C         142.9474  143.5780  161.3396 C.ar    1  UNL1        0.0021
     27 N         144.9677  143.2923  164.7436 N.pl3   1  UNL1        0.0809
     28 O         145.1878  144.1099  165.9817 O.2     1  UNL1        0.0415
     29 O         145.7731  142.0481  164.5134 O.co2   1  UNL1       -0.5760
@<TRIPOS>UNITY_ATOM_ATTR
16 1
charge 1
18 1
charge -1
27 1
charge 1
29 1
charge -1
@<TRIPOS>BOND
     1     8     9    1
     2     9     7    1
     3     7     1    1
     4     1     2    1
     5     2     3    1
     6     3     4    1
     7     4    19    1
     8    19    20    1
     9    20    21    1
    10    21    22   ar
    11    22    23   ar
    12    23    24   ar
    13    24    27    1
    14    27    28    2
    15    27    29    1
    16    24    25   ar
    17    25    26   ar
    18     4     5    1
    19     5     6    1
    20     9    10    1
    21    10    11   ar
    22    11    12   ar
    23    12    13   ar
    24    13    16    1
    25    16    17    2
    26    16    18    1
    27    13    14   ar
    28    14    15   ar
    29     6     1    1
    30    15    10   ar
    31    26    21   ar
@<TRIPOS>MOLECULE
*****
 29 31 0 0 0
SMALL
GASTEIGER

@<TRIPOS>ATOM
      1 N         138.3138  142.3802  162.6900 N.3     1  UNL1       -0.2700
      2 C         139.2615  142.4123  161.5278 C.3     1  UNL1        0.0897
      3 C         139.7032  141.1312  160.8847 C.3     1  UNL1        0.0897
      4 N         139.1972  139.8180  161.4038 N.3     1  UNL1       -0.2700
      5 C         138.2494  139.7860  162.5660 C.3     1  UNL1        0.0897
      6 C         137.8078  141.0671  163.2091 C.3     1  UNL1        0.0897
      7 C         137.8721  143.6614  163.3332 C.3     1  UNL1        0.0765
      8 C         137.8545  144.9305  165.6002 C.3     1  UNL1        0.0061
      9 C         138.6029  144.1898  164.5318 C.3     1  UNL1        0.0383
     10 C         140.0820  143.9775  164.6621 C.ar    1  UNL1       -0.0208
     11 C         140.6073  142.8626  165.5173 C.ar    1  UNL1        0.0021
     12 C         142.0864  142.6503  165.6476 C.ar    1  UNL1        0.0749
     13 C         143.0404  143.5529  164.9228 C.ar    1  UNL1        0.2900
     14 C         142.5152  144.6678  164.0676 C.ar    1  UNL1        0.0749
     15 C         141.0360  144.8800  163.9373 C.ar    1  UNL1        0.0021
     16 N         144.5195  143.3406  165.0531 N.pl3   1  UNL1        0.0809
     17 O         145.2104  142.3256  164.1913 O.2     1  UNL1        0.0415
     18 O         145.3079  144.1431  166.0452 O.co2   1  UNL1       -0.5760
     19 C         139.6389  138.5369  160.7606 C.3     1  UNL1        0.0769
     20 C         141.0039  137.9853  161.0476 C.3     1  UNL1        0.0437
     21 C         141.5907  138.1130  162.4222 C.ar    1  UNL1       -0.0204
     22 C         140.9622  137.3895  163.5761 C.ar    1  UNL1        0.0021
     23 C         141.5489  137.5172  164.9506 C.ar    1  UNL1        0.0749
     24 C         142.7642  138.3684  165.1712 C.ar    1  UNL1        0.2900
     25 C         143.3927  139.0918  164.0173 C.ar    1  UNL1        0.0749
     26 C         142.8059  138.9641  162.6428 C.ar    1  UNL1        0.0021
     27 N         143.3509  138.4961  166.5459 N.pl3   1  UNL1        0.0809
     28 O         142.8415  139.5499  167.4839 O.2     1  UNL1        0.0415
     29 O         144.4471  137.5699  166.9824 O.co2   1  UNL1       -0.5760
@<TRIPOS>UNITY_ATOM_ATTR
16 1
charge 1
18 1
charge -1
27 1
charge 1
29 1
charge -1
@<TRIPOS>BOND
     1     8     9    1
     2     9     7    1
     3     7     1    1
     4     1     2    1
     5     2     3    1
     6     3     4    1
     7     4    19    1
     8    19    20    1
     9    20    21    1
    10    21    22   ar
    11    22    23   ar
    12    23    24   ar
    13    24    27    1
    14    27    28    2
    15    27    29    1
    16    24    25   ar
    17    25    26   ar
    18     4     5    1
    19     5     6    1
    20     9    10    1
    21    10    11   ar
    22    11    12   ar
    23    12    13   ar
    24    13    16    1
    25    16    17    2
    26    16    18    1
    27    13    14   ar
    28    14    15   ar
    29     6     1    1
    30    15    10   ar
    31    26    21   ar
@<TRIPOS>MOLECULE
*****
 29 31 0 0 0
SMALL
GASTEIGER

@<TRIPOS>ATOM
      1 N         141.5109  140.7350  161.9052 N.3     1  UNL1       -0.2700
      2 C         141.1655  142.1914  162.0027 C.3     1  UNL1        0.0897
      3 C         141.8380  143.0546  163.0286 C.3     1  UNL1        0.0897
      4 N         142.8559  142.4615  163.9571 N.3     1  UNL1       -0.2700
      5 C         143.2013  141.0051  163.8596 C.3     1  UNL1        0.0897
      6 C         142.5288  140.1418  162.8337 C.3     1  UNL1        0.0897
      7 C         140.8385  139.8717  160.8793 C.3     1  UNL1        0.0765
      8 C         138.8808  138.3011  160.2078 C.3     1  UNL1        0.0061
      9 C         139.6541  139.0350  161.2630 C.3     1  UNL1        0.0383
     10 C         139.2430  138.9323  162.7019 C.ar    1  UNL1       -0.0208
     11 C         138.4930  140.0581  163.3499 C.ar    1  UNL1        0.0021
     12 C         138.0819  139.9554  164.7888 C.ar    1  UNL1        0.0749
     13 C         138.4208  138.7268  165.5797 C.ar    1  UNL1        0.2900
     14 C         139.1710  137.6009  164.9318 C.ar    1  UNL1        0.0749
     15 C         139.5821  137.7036  163.4929 C.ar    1  UNL1        0.0021
     16 N         138.0098  138.6240  167.0186 N.pl3   1  UNL1        0.0809
     17 O         136.8650  137.7372  167.4101 O.2     1  UNL1        0.0415
     18 O         138.7434  139.4080  168.0660 O.co2   1  UNL1       -0.5760
     19 C         143.5283  143.3248  164.9831 C.3     1  UNL1        0.0769
     20 C         144.0020  142.7251  166.2738 C.3     1  UNL1        0.0437
     21 C         143.0416  142.5378  167.4108 C.ar    1  UNL1       -0.0204
     22 C         141.5778  142.3620  167.1350 C.ar    1  UNL1        0.0021
     23 C         140.6176  142.1747  168.2720 C.ar    1  UNL1        0.0749
     24 C         141.1212  142.1634  169.6848 C.ar    1  UNL1        0.2900
     25 C         142.5850  142.3392  169.9607 C.ar    1  UNL1        0.0749
     26 C         143.5453  142.5265  168.8237 C.ar    1  UNL1        0.0021
     27 N         140.1608  141.9761  170.8219 N.pl3   1  UNL1        0.0809
     28 O         138.7327  141.6105  170.5449 O.2     1  UNL1        0.0415
     29 O         140.6287  142.1544  172.2358 O.co2   1  UNL1       -0.5760
@<TRIPOS>UNITY_ATOM_ATTR
16 1
charge 1
18 1
charge -1
27 1
charge 1
29 1
charge -1
@<TRIPOS>BOND
     1     8     9    1
     2     9     7    1
     3     7     1    1
     4     1     2    1
     5     2     3    1
     6     3     4    1
     7     4    19    1
     8    19    20    1
     9    20    21    1
    10    21    22   ar
    11    22    23   ar
    12    23    24   ar
    13    24    27    1
    14    27    28    2
    15    27    29    1
    16    24    25   ar
    17    25    26   ar
    18     4     5    1
    19     5     6    1
    20     9    10    1
    21    10    11   ar
    22    11    12   ar
    23    12    13   ar
    24    13    16    1
    25    16    17    2
    26    16    18    1
    27    13    14   ar
    28    14    15   ar
    29     6     1    1
    30    15    10   ar
    31    26    21   ar
@<TRIPOS>MOLECULE
*****
 29 31 0 0 0
SMALL
GASTEIGER

@<TRIPOS>ATOM
      1 N         139.6516  140.0781  161.2163 N.3     1  UNL1       -0.2700
      2 C         138.6867  140.0492  162.3643 C.3     1  UNL1        0.0897
      3 C         138.1597  141.3330  162.9336 C.3     1  UNL1        0.0897
      4 N         138.5976  142.6457  162.3547 N.3     1  UNL1       -0.2700
      5 C         139.5625  142.6746  161.2067 C.3     1  UNL1        0.0897
      6 C         140.0895  141.3908  160.6374 C.3     1  UNL1        0.0897
      7 C         140.1786  138.7942  160.6470 C.3     1  UNL1        0.0765
      8 C         142.4882  137.8729  159.8939 C.3     1  UNL1        0.0061
      9 C         141.5679  138.3393  160.9828 C.3     1  UNL1        0.0383
     10 C         142.0370  138.3508  162.4075 C.ar    1  UNL1       -0.0208
     11 C         143.2455  139.1513  162.7928 C.ar    1  UNL1        0.0021
     12 C         143.7146  139.1628  164.2175 C.ar    1  UNL1        0.0749
     13 C         142.9752  138.3737  165.2570 C.ar    1  UNL1        0.2900
     14 C         141.7666  137.5730  164.8717 C.ar    1  UNL1        0.0749
     15 C         141.2975  137.5616  163.4470 C.ar    1  UNL1        0.0021
     16 N         143.4443  138.3851  166.6817 N.pl3   1  UNL1        0.0809
     17 O         142.8356  139.3415  167.6640 O.2     1  UNL1        0.0415
     18 O         144.5220  137.4402  167.1241 O.co2   1  UNL1       -0.5760
     19 C         138.0706  143.9295  162.9241 C.3     1  UNL1        0.0769
     20 C         138.7771  144.5865  164.0726 C.3     1  UNL1        0.0437
     21 C         140.2268  144.2965  164.3263 C.ar    1  UNL1       -0.0204
     22 C         141.2851  145.1273  163.6633 C.ar    1  UNL1        0.0021
     23 C         142.7347  144.8372  163.9171 C.ar    1  UNL1        0.0749
     24 C         143.1260  143.7163  164.8338 C.ar    1  UNL1        0.2900
     25 C         142.0677  142.8855  165.4969 C.ar    1  UNL1        0.0749
     26 C         140.6181  143.1756  165.2431 C.ar    1  UNL1        0.0021
     27 N         144.5757  143.4263  165.0876 N.pl3   1  UNL1        0.0809
     28 O         145.2743  142.3543  164.3047 O.2     1  UNL1        0.0415
     29 O         145.3268  144.2081  166.1242 O.co2   1  UNL1       -0.5760
@<TRIPOS>UNITY_ATOM_ATTR
16 1
charge 1
18 1
charge -1
27 1
charge 1
29 1
charge -1
@<TRIPOS>BOND
     1     8     9    1
     2     9     7    1
     3     7     1    1
     4     1     2    1
     5     2     3    1
     6     3     4    1
     7     4    19    1
     8    19    20    1
     9    20    21    1
    10    21    22   ar
    11    22    23   ar
    12    23    24   ar
    13    24    27    1
    14    27    28    2
    15    27    29    1
    16    24    25   ar
    17    25    26   ar
    18     4     5    1
    19     5     6    1
    20     9    10    1
    21    10    11   ar
    22    11    12   ar
    23    12    13   ar
    24    13    16    1
    25    16    17    2
    26    16    18    1
    27    13    14   ar
    28    14    15   ar
    29     6     1    1
    30    15    10   ar
    31    26    21   ar
@<TRIPOS>MOLECULE
*****
 29 31 0 0 0
SMALL
GASTEIGER

@<TRIPOS>ATOM
      1 N         141.6451  138.2664  164.4951 N.3     1  UNL1       -0.2700
      2 C         142.1074  138.5848  163.1042 C.3     1  UNL1        0.0897
      3 C         143.3707  139.3658  162.8941 C.3     1  UNL1        0.0897
      4 N         144.1715  139.8285  164.0750 N.3     1  UNL1       -0.2700
      5 C         143.7092  139.5102  165.4659 C.3     1  UNL1        0.0897
      6 C         142.4460  138.7291  165.6760 C.3     1  UNL1        0.0897
      7 C         140.3818  137.4853  164.7053 C.3     1  UNL1        0.0765
      8 C         138.1356  137.4156  166.0090 C.3     1  UNL1        0.0061
      9 C         139.1471  138.1760  165.2035 C.3     1  UNL1        0.0383
     10 C         138.9237  139.6271  164.8962 C.ar    1  UNL1       -0.0208
     11 C         138.1511  140.0245  163.6734 C.ar    1  UNL1        0.0021
     12 C         137.9277  141.4755  163.3661 C.ar    1  UNL1        0.0749
     13 C         138.4769  142.5292  164.2815 C.ar    1  UNL1        0.2900
     14 C         139.2495  142.1319  165.5044 C.ar    1  UNL1        0.0749
     15 C         139.4729  140.6808  165.8117 C.ar    1  UNL1        0.0021
     16 N         138.2535  143.9803  163.9742 N.pl3   1  UNL1        0.0809
     17 O         137.5334  144.3792  162.7202 O.2     1  UNL1        0.0415
     18 O         138.7501  145.0325  164.9209 O.co2   1  UNL1       -0.5760
     19 C         145.4348  140.6096  163.8648 C.3     1  UNL1        0.0769
     20 C         145.4023  142.1091  163.8894 C.3     1  UNL1        0.0437
     21 C         144.2312  142.8435  163.3071 C.ar    1  UNL1       -0.0204
     22 C         143.2283  143.4943  164.2130 C.ar    1  UNL1        0.0021
     23 C         142.0572  144.2288  163.6307 C.ar    1  UNL1        0.0749
     24 C         141.8890  144.3124  162.1425 C.ar    1  UNL1        0.2900
     25 C         142.8918  143.6616  161.2366 C.ar    1  UNL1        0.0749
     26 C         144.0629  142.9271  161.8189 C.ar    1  UNL1        0.0021
     27 N         140.7178  145.0468  161.5602 N.pl3   1  UNL1        0.0809
     28 O         140.2241  146.3058  162.2092 O.2     1  UNL1        0.0415
     29 O         140.0404  144.5223  160.3290 O.co2   1  UNL1       -0.5760
@<TRIPOS>UNITY_ATOM_ATTR
16 1
charge 1
18 1
charge -1
27 1
charge 1
29 1
charge -1
@<TRIPOS>BOND
     1     8     9    1
     2     9     7    1
     3     7     1    1
     4     1     2    1
     5     2     3    1
     6     3     4    1
     7     4    19    1
     8    19    20    1
     9    20    21    1
    10    21    22   ar
    11    22    23   ar
    12    23    24   ar
    13    24    27    1
    14    27    28    2
    15    27    29    1
    16    24    25   ar
    17    25    26   ar
    18     4     5    1
    19     5     6    1
    20     9    10    1
    21    10    11   ar
    22    11    12   ar
    23    12    13   ar
    24    13    16    1
    25    16    17    2
    26    16    18    1
    27    13    14   ar
    28    14    15   ar
    29     6     1    1
    30    15    10   ar
    31    26    21   ar
