@<TRIPOS>MOLECULE
*****
 25 27 0 0 0
SMALL
GASTEIGER

@<TRIPOS>ATOM
      1 P         141.7385  140.1596  165.3642 P.3     1  UNL1        0.2266
      2 O         142.4296  139.5832  166.5643 O.2     1  UNL1       -0.2903
      3 C         140.4525  139.5209  165.7981 C.ar    1  UNL1        0.0498
      4 C         139.8869  138.3699  165.0201 C.ar    1  UNL1        0.0046
      5 C         138.6009  137.7311  165.4539 C.ar    1  UNL1        0.0002
      6 C         137.8805  138.2434  166.6657 C.ar    1  UNL1        0.0000
      7 C         138.4460  139.3944  167.4437 C.ar    1  UNL1        0.0002
      8 C         139.7320  140.0331  167.0099 C.ar    1  UNL1        0.0046
      9 C         143.0245  140.7983  164.9304 C.ar    1  UNL1        0.0498
     10 C         144.0387  139.9992  164.1671 C.ar    1  UNL1        0.0046
     11 C         145.3247  140.6379  163.7333 C.ar    1  UNL1        0.0002
     12 C         145.5965  142.0758  164.0627 C.ar    1  UNL1        0.0000
     13 C         144.5822  142.8750  164.8260 C.ar    1  UNL1        0.0002
     14 C         143.2962  142.2362  165.2598 C.ar    1  UNL1        0.0046
     15 N         141.0473  140.7360  164.1642 N.pl3   1  UNL1       -0.2576
     16 C         140.0025  141.7981  164.3386 C.ar    1  UNL1        0.0725
     17 C         140.3274  143.0530  165.0934 C.ar    1  UNL1        0.0180
     18 C         139.2826  144.1150  165.2678 C.ar    1  UNL1        0.0220
     19 C         137.9129  143.9222  164.6874 C.ar    1  UNL1        0.0990
     20 N         137.5880  142.6673  163.9327 N.ar    1  UNL1       -0.2410
     21 C         138.6328  141.6053  163.7583 C.ar    1  UNL1        0.1136
     22 C         141.4009  140.2504  162.7898 C.3     1  UNL1        0.1294
     23 C         141.5583  141.2307  161.6653 C.3     1  UNL1        0.1640
     24 C         142.3241  143.6983  161.9377 C.3     1  UNL1        0.1742
     25 O         142.6549  142.2531  161.7096 O.3     1  UNL1       -0.3493
@<TRIPOS>BOND
     1    24    25    1
     2    25    23    1
     3    23    22    1
     4    22    15    1
     5    15    16    1
     6    16    17   ar
     7    17    18   ar
     8    18    19   ar
     9    19    20   ar
    10    20    21   ar
    11    15     1    1
    12     1     2    2
    13     1     3    1
    14     3     4   ar
    15     4     5   ar
    16     5     6   ar
    17     6     7   ar
    18     7     8   ar
    19     1     9    1
    20     9    10   ar
    21    10    11   ar
    22    11    12   ar
    23    12    13   ar
    24    13    14   ar
    25    21    16   ar
    26     8     3   ar
    27    14     9   ar
@<TRIPOS>MOLECULE
*****
 25 27 0 0 0
SMALL
GASTEIGER

@<TRIPOS>ATOM
      1 P         141.7117  140.1154  165.3596 P.3     1  UNL1        0.2266
      2 O         142.3989  139.5362  166.5605 O.2     1  UNL1       -0.2903
      3 C         142.9973  140.7615  164.9356 C.ar    1  UNL1        0.0498
      4 C         143.2545  142.2034  165.2593 C.ar    1  UNL1        0.0046
      5 C         144.5401  142.8495  164.8352 C.ar    1  UNL1        0.0002
      6 C         145.5685  142.0537  164.0876 C.ar    1  UNL1        0.0000
      7 C         145.3113  140.6118  163.7640 C.ar    1  UNL1        0.0002
      8 C         144.0257  139.9657  164.1880 C.ar    1  UNL1        0.0046
      9 C         140.4261  139.4693  165.7836 C.ar    1  UNL1        0.0498
     10 C         139.6899  139.9820  166.9857 C.ar    1  UNL1        0.0046
     11 C         138.4043  139.3359  167.4098 C.ar    1  UNL1        0.0002
     12 C         137.8549  138.1772  166.6316 C.ar    1  UNL1        0.0000
     13 C         138.5911  137.6645  165.4295 C.ar    1  UNL1        0.0002
     14 C         139.8767  138.3106  165.0055 C.ar    1  UNL1        0.0046
     15 N         141.0245  140.6947  164.1587 N.pl3   1  UNL1       -0.2576
     16 C         139.9803  141.7576  164.3321 C.ar    1  UNL1        0.0725
     17 C         140.3156  143.0272  165.0570 C.ar    1  UNL1        0.0180
     18 C         139.2714  144.0900  165.2304 C.ar    1  UNL1        0.0220
     19 C         137.8919  143.8831  164.6789 C.ar    1  UNL1        0.0990
     20 N         137.5566  142.6135  163.9541 N.ar    1  UNL1       -0.2410
     21 C         138.6008  141.5507  163.7807 C.ar    1  UNL1        0.1136
     22 C         141.3815  140.2112  162.7844 C.3     1  UNL1        0.1294
     23 C         141.5533  141.1943  161.6645 C.3     1  UNL1        0.1640
     24 C         142.2700  143.6774  161.9292 C.3     1  UNL1        0.1742
     25 O         142.6317  142.2343  161.7384 O.3     1  UNL1       -0.3493
@<TRIPOS>BOND
     1    24    25    1
     2    25    23    1
     3    23    22    1
     4    22    15    1
     5    15    16    1
     6    16    17   ar
     7    17    18   ar
     8    18    19   ar
     9    19    20   ar
    10    20    21   ar
    11    15     1    1
    12     1     2    2
    13     1     3    1
    14     3     4   ar
    15     4     5   ar
    16     5     6   ar
    17     6     7   ar
    18     7     8   ar
    19     1     9    1
    20     9    10   ar
    21    10    11   ar
    22    11    12   ar
    23    12    13   ar
    24    13    14   ar
    25    21    16   ar
    26     8     3   ar
    27    14     9   ar
@<TRIPOS>MOLECULE
*****
 25 27 0 0 0
SMALL
GASTEIGER

@<TRIPOS>ATOM
      1 P         142.2846  141.6234  166.9933 P.3     1  UNL1        0.2266
      2 O         143.3734  141.8839  167.9917 O.2     1  UNL1       -0.2903
      3 C         141.2708  141.6243  168.0988 C.ar    1  UNL1        0.0498
      4 C         140.5058  140.3736  168.4158 C.ar    1  UNL1        0.0046
      5 C         139.4919  140.3745  169.5213 C.ar    1  UNL1        0.0002
      6 C         139.2431  141.6260  170.3098 C.ar    1  UNL1        0.0000
      7 C         140.0081  142.8767  169.9928 C.ar    1  UNL1        0.0002
      8 C         141.0219  142.8758  168.8873 C.ar    1  UNL1        0.0046
      9 C         143.2985  141.6226  165.8878 C.ar    1  UNL1        0.0498
     10 C         143.6223  140.3470  165.1682 C.ar    1  UNL1        0.0046
     11 C         144.6361  140.3461  164.0627 C.ar    1  UNL1        0.0002
     12 C         145.3262  141.6209  163.6769 C.ar    1  UNL1        0.0000
     13 C         145.0024  142.8964  164.3966 C.ar    1  UNL1        0.0002
     14 C         143.9885  142.8973  165.5020 C.ar    1  UNL1        0.0046
     15 N         141.1958  141.3629  165.9950 N.pl3   1  UNL1       -0.2576
     16 C         140.5932  142.5026  165.2280 C.ar    1  UNL1        0.0725
     17 C         139.6876  143.4771  165.9207 C.ar    1  UNL1        0.0180
     18 C         139.0851  144.6167  165.1537 C.ar    1  UNL1        0.0220
     19 C         139.3882  144.7816  163.6939 C.ar    1  UNL1        0.0990
     20 N         140.2938  143.8070  163.0012 N.ar    1  UNL1       -0.2410
     21 C         140.8964  142.6675  163.7682 C.ar    1  UNL1        0.1136
     22 C         140.7096  139.9630  165.7637 C.3     1  UNL1        0.1294
     23 C         139.4016  139.7286  165.0678 C.3     1  UNL1        0.1640
     24 C         137.8031  138.4932  166.7013 C.3     1  UNL1        0.1742
     25 O         138.1275  139.6909  165.8586 O.3     1  UNL1       -0.3493
@<TRIPOS>BOND
     1    24    25    1
     2    25    23    1
     3    23    22    1
     4    22    15    1
     5    15    16    1
     6    16    17   ar
     7    17    18   ar
     8    18    19   ar
     9    19    20   ar
    10    20    21   ar
    11    15     1    1
    12     1     2    2
    13     1     3    1
    14     3     4   ar
    15     4     5   ar
    16     5     6   ar
    17     6     7   ar
    18     7     8   ar
    19     1     9    1
    20     9    10   ar
    21    10    11   ar
    22    11    12   ar
    23    12    13   ar
    24    13    14   ar
    25    21    16   ar
    26     8     3   ar
    27    14     9   ar
@<TRIPOS>MOLECULE
*****
 25 27 0 0 0
SMALL
GASTEIGER

@<TRIPOS>ATOM
      1 P         142.2821  141.6297  166.9917 P.3     1  UNL1        0.2266
      2 O         143.3712  141.8831  167.9916 O.2     1  UNL1       -0.2903
      3 C         143.2966  141.6297  165.8868 C.ar    1  UNL1        0.0498
      4 C         143.9938  142.9028  165.5088 C.ar    1  UNL1        0.0046
      5 C         145.0083  142.9028  164.4038 C.ar    1  UNL1        0.0002
      6 C         145.3255  141.6296  163.6769 C.ar    1  UNL1        0.0000
      7 C         144.6282  140.3565  164.0549 C.ar    1  UNL1        0.0002
      8 C         143.6138  140.3565  165.1599 C.ar    1  UNL1        0.0046
      9 C         141.2677  141.6297  168.0966 C.ar    1  UNL1        0.0498
     10 C         140.5012  140.3793  168.4112 C.ar    1  UNL1        0.0046
     11 C         139.4868  140.3793  169.5161 C.ar    1  UNL1        0.0002
     12 C         139.2387  141.6298  170.3065 C.ar    1  UNL1        0.0000
     13 C         140.0052  142.8802  169.9920 C.ar    1  UNL1        0.0002
     14 C         141.0196  142.8802  168.8871 C.ar    1  UNL1        0.0046
     15 N         141.1931  141.3763  165.9918 N.pl3   1  UNL1       -0.2576
     16 C         140.5981  142.5199  165.2248 C.ar    1  UNL1        0.0725
     17 C         139.6729  143.4816  165.9096 C.ar    1  UNL1        0.0180
     18 C         139.0780  144.6252  165.1426 C.ar    1  UNL1        0.0220
     19 C         139.4084  144.8071  163.6908 C.ar    1  UNL1        0.0990
     20 N         140.3336  143.8453  163.0060 N.ar    1  UNL1       -0.2410
     21 C         140.9285  142.7018  163.7730 C.ar    1  UNL1        0.1136
     22 C         140.6989  139.9793  165.7590 C.3     1  UNL1        0.1294
     23 C         139.3965  139.7529  165.0500 C.3     1  UNL1        0.1640
     24 C         137.8217  138.4900  166.6855 C.3     1  UNL1        0.1742
     25 O         138.1183  139.6874  165.8322 O.3     1  UNL1       -0.3493
@<TRIPOS>BOND
     1    24    25    1
     2    25    23    1
     3    23    22    1
     4    22    15    1
     5    15    16    1
     6    16    17   ar
     7    17    18   ar
     8    18    19   ar
     9    19    20   ar
    10    20    21   ar
    11    15     1    1
    12     1     2    2
    13     1     3    1
    14     3     4   ar
    15     4     5   ar
    16     5     6   ar
    17     6     7   ar
    18     7     8   ar
    19     1     9    1
    20     9    10   ar
    21    10    11   ar
    22    11    12   ar
    23    12    13   ar
    24    13    14   ar
    25    21    16   ar
    26     8     3   ar
    27    14     9   ar
@<TRIPOS>MOLECULE
*****
 25 27 0 0 0
SMALL
GASTEIGER

@<TRIPOS>ATOM
      1 P         141.0320  140.5801  167.2841 P.3     1  UNL1        0.2266
      2 O         140.4101  139.7247  168.3478 O.2     1  UNL1       -0.2903
      3 C         141.5918  141.4864  168.3402 C.ar    1  UNL1        0.0498
      4 C         140.7508  142.5955  168.8993 C.ar    1  UNL1        0.0046
      5 C         141.3105  143.5018  169.9554 C.ar    1  UNL1        0.0002
      6 C         142.7112  143.2990  170.4523 C.ar    1  UNL1        0.0000
      7 C         143.5521  142.1900  169.8932 C.ar    1  UNL1        0.0002
      8 C         142.9924  141.2837  168.8371 C.ar    1  UNL1        0.0046
      9 C         140.4723  139.6738  166.2280 C.ar    1  UNL1        0.0498
     10 C         141.3817  138.7494  165.4740 C.ar    1  UNL1        0.0046
     11 C         140.8220  137.8431  164.4180 C.ar    1  UNL1        0.0002
     12 C         139.3529  137.8612  164.1158 C.ar    1  UNL1        0.0000
     13 C         138.4435  138.7855  164.8698 C.ar    1  UNL1        0.0002
     14 C         139.0032  139.6919  165.9259 C.ar    1  UNL1        0.0046
     15 N         141.6539  141.4355  166.2204 N.pl3   1  UNL1       -0.2576
     16 C         140.7890  142.3033  165.3549 C.ar    1  UNL1        0.0725
     17 C         139.9281  143.3623  165.9772 C.ar    1  UNL1        0.0180
     18 C         139.0632  144.2300  165.1118 C.ar    1  UNL1        0.0220
     19 C         139.0592  144.0387  163.6240 C.ar    1  UNL1        0.0990
     20 N         139.9201  142.9797  163.0017 N.ar    1  UNL1       -0.2410
     21 C         140.7849  142.1120  163.8672 C.ar    1  UNL1        0.1136
     22 C         143.1407  141.4233  166.0221 C.3     1  UNL1        0.1294
     23 C         143.8493  142.6707  165.5841 C.3     1  UNL1        0.1640
     24 C         145.5827  141.7578  163.8779 C.3     1  UNL1        0.1742
     25 O         144.4971  142.7301  164.2326 O.3     1  UNL1       -0.3493
@<TRIPOS>BOND
     1    24    25    1
     2    25    23    1
     3    23    22    1
     4    22    15    1
     5    15    16    1
     6    16    17   ar
     7    17    18   ar
     8    18    19   ar
     9    19    20   ar
    10    20    21   ar
    11    15     1    1
    12     1     2    2
    13     1     3    1
    14     3     4   ar
    15     4     5   ar
    16     5     6   ar
    17     6     7   ar
    18     7     8   ar
    19     1     9    1
    20     9    10   ar
    21    10    11   ar
    22    11    12   ar
    23    12    13   ar
    24    13    14   ar
    25    21    16   ar
    26     8     3   ar
    27    14     9   ar
@<TRIPOS>MOLECULE
*****
 25 27 0 0 0
SMALL
GASTEIGER

@<TRIPOS>ATOM
      1 P         141.0293  140.6039  167.1917 P.3     1  UNL1        0.2266
      2 O         140.3998  139.7283  168.2343 O.2     1  UNL1       -0.2903
      3 C         140.5080  139.6978  166.1159 C.ar    1  UNL1        0.0498
      4 C         139.0475  139.7022  165.7742 C.ar    1  UNL1        0.0046
      5 C         138.5261  138.7961  164.6985 C.ar    1  UNL1        0.0002
      6 C         139.4653  137.8856  163.9644 C.ar    1  UNL1        0.0000
      7 C         140.9259  137.8813  164.3061 C.ar    1  UNL1        0.0002
      8 C         141.4472  138.7873  165.3818 C.ar    1  UNL1        0.0046
      9 C         141.5506  141.5100  168.2674 C.ar    1  UNL1        0.0498
     10 C         140.6829  142.6066  168.8101 C.ar    1  UNL1        0.0046
     11 C         141.2043  143.5127  169.8858 C.ar    1  UNL1        0.0002
     12 C         142.5933  143.3222  170.4189 C.ar    1  UNL1        0.0000
     13 C         143.4610  142.2256  169.8762 C.ar    1  UNL1        0.0002
     14 C         142.9397  141.3195  168.8005 C.ar    1  UNL1        0.0046
     15 N         141.6588  141.4795  166.1491 N.pl3   1  UNL1       -0.2576
     16 C         140.7988  142.3524  165.2839 C.ar    1  UNL1        0.0725
     17 C         139.9047  143.3812  165.9102 C.ar    1  UNL1        0.0180
     18 C         139.0448  144.2540  165.0450 C.ar    1  UNL1        0.0220
     19 C         139.0788  144.0981  163.5535 C.ar    1  UNL1        0.0990
     20 N         139.9728  143.0693  162.9272 N.ar    1  UNL1       -0.2410
     21 C         140.8328  142.1965  163.7924 C.ar    1  UNL1        0.1136
     22 C         143.1482  141.4823  165.9716 C.3     1  UNL1        0.1294
     23 C         143.8537  142.7447  165.5731 C.3     1  UNL1        0.1640
     24 C         145.5869  141.7645  163.9043 C.3     1  UNL1        0.1742
     25 O         144.5795  142.8165  164.2624 O.3     1  UNL1       -0.3493
@<TRIPOS>BOND
     1    24    25    1
     2    25    23    1
     3    23    22    1
     4    22    15    1
     5    15    16    1
     6    16    17   ar
     7    17    18   ar
     8    18    19   ar
     9    19    20   ar
    10    20    21   ar
    11    15     1    1
    12     1     2    2
    13     1     3    1
    14     3     4   ar
    15     4     5   ar
    16     5     6   ar
    17     6     7   ar
    18     7     8   ar
    19     1     9    1
    20     9    10   ar
    21    10    11   ar
    22    11    12   ar
    23    12    13   ar
    24    13    14   ar
    25    21    16   ar
    26     8     3   ar
    27    14     9   ar
@<TRIPOS>MOLECULE
*****
 25 27 0 0 0
SMALL
GASTEIGER

@<TRIPOS>ATOM
      1 P         141.7455  140.0604  165.3504 P.3     1  UNL1        0.2266
      2 O         142.4284  139.4823  166.5543 O.2     1  UNL1       -0.2903
      3 C         140.4498  139.4456  165.7901 C.ar    1  UNL1        0.0498
      4 C         139.7080  140.0171  166.9618 C.ar    1  UNL1        0.0046
      5 C         138.4123  139.4024  167.4014 C.ar    1  UNL1        0.0002
      6 C         137.8585  138.2160  166.6694 C.ar    1  UNL1        0.0000
      7 C         138.6004  137.6445  165.4977 C.ar    1  UNL1        0.0002
      8 C         139.8961  138.2593  165.0580 C.ar    1  UNL1        0.0046
      9 C         143.0412  140.6752  164.9107 C.ar    1  UNL1        0.0498
     10 C         143.3225  142.1197  165.2009 C.ar    1  UNL1        0.0046
     11 C         144.6182  142.7344  164.7612 C.ar    1  UNL1        0.0002
     12 C         145.6325  141.9047  164.0313 C.ar    1  UNL1        0.0000
     13 C         145.3511  140.4603  163.7412 C.ar    1  UNL1        0.0002
     14 C         144.0555  139.8455  164.1809 C.ar    1  UNL1        0.0046
     15 N         141.0626  140.6385  164.1464 N.pl3   1  UNL1       -0.2576
     16 C         139.9833  141.6660  164.3176 C.ar    1  UNL1        0.0725
     17 C         138.6098  141.4091  163.7722 C.ar    1  UNL1        0.0180
     18 C         137.5305  142.4365  163.9434 C.ar    1  UNL1        0.0220
     19 C         137.8247  143.7210  164.6601 C.ar    1  UNL1        0.0990
     20 N         139.1981  143.9780  165.2055 N.ar    1  UNL1       -0.2410
     21 C         140.2774  142.9505  165.0343 C.ar    1  UNL1        0.1136
     22 C         141.4591  140.1892  162.7714 C.3     1  UNL1        0.1294
     23 C         140.8128  138.9804  162.1619 C.3     1  UNL1        0.1640
     24 C         138.3891  138.2181  161.6198 C.3     1  UNL1        0.1742
     25 O         139.5536  139.1272  161.3602 O.3     1  UNL1       -0.3493
@<TRIPOS>BOND
     1    24    25    1
     2    25    23    1
     3    23    22    1
     4    22    15    1
     5    15    16    1
     6    16    17   ar
     7    17    18   ar
     8    18    19   ar
     9    19    20   ar
    10    20    21   ar
    11    15     1    1
    12     1     2    2
    13     1     3    1
    14     3     4   ar
    15     4     5   ar
    16     5     6   ar
    17     6     7   ar
    18     7     8   ar
    19     1     9    1
    20     9    10   ar
    21    10    11   ar
    22    11    12   ar
    23    12    13   ar
    24    13    14   ar
    25    21    16   ar
    26     8     3   ar
    27    14     9   ar
@<TRIPOS>MOLECULE
*****
 25 27 0 0 0
SMALL
GASTEIGER

@<TRIPOS>ATOM
      1 P         141.2894  140.4896  165.4410 P.3     1  UNL1        0.2266
      2 O         142.2488  139.4550  165.9501 O.2     1  UNL1       -0.2903
      3 C         140.1378  139.5967  165.7967 C.ar    1  UNL1        0.0498
      4 C         139.2466  139.9463  166.9515 C.ar    1  UNL1        0.0046
      5 C         138.0950  139.0534  167.3072 C.ar    1  UNL1        0.0002
      6 C         137.8345  137.8110  166.5082 C.ar    1  UNL1        0.0000
      7 C         138.7257  137.4614  165.3534 C.ar    1  UNL1        0.0002
      8 C         139.8773  138.3543  164.9977 C.ar    1  UNL1        0.0046
      9 C         142.4410  141.3824  165.0852 C.ar    1  UNL1        0.0498
     10 C         142.9471  141.4273  163.6739 C.ar    1  UNL1        0.0046
     11 C         144.0988  142.3202  163.3182 C.ar    1  UNL1        0.0002
     12 C         144.7443  143.1682  164.3737 C.ar    1  UNL1        0.0000
     13 C         144.2382  143.1233  165.7850 C.ar    1  UNL1        0.0002
     14 C         143.0865  142.2304  166.1408 C.ar    1  UNL1        0.0046
     15 N         140.3300  141.5242  164.9319 N.pl3   1  UNL1       -0.2576
     16 C         139.4837  141.2342  163.7278 C.ar    1  UNL1        0.0725
     17 C         140.1287  140.8051  162.4434 C.ar    1  UNL1        0.0180
     18 C         139.2824  140.5152  161.2394 C.ar    1  UNL1        0.0220
     19 C         137.7910  140.6544  161.3198 C.ar    1  UNL1        0.0990
     20 N         137.1460  141.0836  162.6042 N.ar    1  UNL1       -0.2410
     21 C         137.9923  141.3735  163.8082 C.ar    1  UNL1        0.1136
     22 C         140.2169  142.8486  165.6268 C.3     1  UNL1        0.1294
     23 C         140.2498  144.1190  164.8298 C.3     1  UNL1        0.1640
     24 C         138.6939  144.8505  162.8821 C.3     1  UNL1        0.1742
     25 O         138.9698  144.7381  164.3521 O.3     1  UNL1       -0.3493
@<TRIPOS>BOND
     1    24    25    1
     2    25    23    1
     3    23    22    1
     4    22    15    1
     5    15    16    1
     6    16    17   ar
     7    17    18   ar
     8    18    19   ar
     9    19    20   ar
    10    20    21   ar
    11    15     1    1
    12     1     2    2
    13     1     3    1
    14     3     4   ar
    15     4     5   ar
    16     5     6   ar
    17     6     7   ar
    18     7     8   ar
    19     1     9    1
    20     9    10   ar
    21    10    11   ar
    22    11    12   ar
    23    12    13   ar
    24    13    14   ar
    25    21    16   ar
    26     8     3   ar
    27    14     9   ar
@<TRIPOS>MOLECULE
*****
 25 27 0 0 0
SMALL
GASTEIGER

@<TRIPOS>ATOM
      1 P         141.7586  140.1651  165.0208 P.3     1  UNL1        0.2266
      2 O         142.5323  138.9567  165.4583 O.2     1  UNL1       -0.2903
      3 C         140.5113  139.5818  165.6157 C.ar    1  UNL1        0.0498
      4 C         139.8291  138.4270  164.9441 C.ar    1  UNL1        0.0046
      5 C         138.5818  137.8437  165.5390 C.ar    1  UNL1        0.0002
      6 C         138.0165  138.4152  166.8053 C.ar    1  UNL1        0.0000
      7 C         138.6986  139.5701  167.4769 C.ar    1  UNL1        0.0002
      8 C         139.9460  140.1534  166.8820 C.ar    1  UNL1        0.0046
      9 C         143.0060  140.7484  164.4260 C.ar    1  UNL1        0.0498
     10 C         143.4332  140.3535  163.0434 C.ar    1  UNL1        0.0046
     11 C         144.6806  140.9368  162.4486 C.ar    1  UNL1        0.0002
     12 C         145.5007  141.9149  163.2363 C.ar    1  UNL1        0.0000
     13 C         145.0735  142.3098  164.6188 C.ar    1  UNL1        0.0002
     14 C         143.8261  141.7265  165.2137 C.ar    1  UNL1        0.0046
     15 N         140.9850  141.3734  164.5833 N.pl3   1  UNL1       -0.2576
     16 C         139.9223  141.2437  163.5326 C.ar    1  UNL1        0.0725
     17 C         138.4914  141.5384  163.8726 C.ar    1  UNL1        0.0180
     18 C         137.4289  141.4086  162.8218 C.ar    1  UNL1        0.0220
     19 C         137.7972  140.9842  161.4311 C.ar    1  UNL1        0.0990
     20 N         139.2281  140.6895  161.0911 N.ar    1  UNL1       -0.2410
     21 C         140.2907  140.8192  162.1418 C.ar    1  UNL1        0.1136
     22 C         141.2739  142.7115  165.1966 C.3     1  UNL1        0.1294
     23 C         141.1060  143.9610  164.3839 C.3     1  UNL1        0.1640
     24 C         142.4906  143.9761  162.1857 C.3     1  UNL1        0.1742
     25 O         142.2533  144.4894  163.5749 O.3     1  UNL1       -0.3493
@<TRIPOS>BOND
     1    24    25    1
     2    25    23    1
     3    23    22    1
     4    22    15    1
     5    15    16    1
     6    16    17   ar
     7    17    18   ar
     8    18    19   ar
     9    19    20   ar
    10    20    21   ar
    11    15     1    1
    12     1     2    2
    13     1     3    1
    14     3     4   ar
    15     4     5   ar
    16     5     6   ar
    17     6     7   ar
    18     7     8   ar
    19     1     9    1
    20     9    10   ar
    21    10    11   ar
    22    11    12   ar
    23    12    13   ar
    24    13    14   ar
    25    21    16   ar
    26     8     3   ar
    27    14     9   ar
