@<TRIPOS>MOLECULE
*****
 33 36 0 0 0
SMALL
GASTEIGER

@<TRIPOS>ATOM
      1 C         140.6902  139.9866  167.3643 C.ar    1  UNL1        0.0685
      2 C         141.0546  139.9109  168.8174 C.ar    1  UNL1        0.0885
      3 C         142.3639  139.3077  169.2318 C.ar    1  UNL1        0.1263
      4 N         143.3089  138.7803  168.1931 N.ar    1  UNL1       -0.1633
      5 N         142.9445  138.8560  166.7400 N.ar    1  UNL1       -0.2269
      6 C         143.6679  138.4216  165.4999 C.ar    1  UNL1        0.1019
      7 C         142.8056  138.7563  164.3190 C.ar    1  UNL1        0.0378
      8 C         141.5493  139.3976  164.8293 C.ar    1  UNL1        0.0234
      9 C         141.6351  139.4592  166.3256 C.ar    1  UNL1        0.0962
     10 C         143.1408  138.4955  162.8804 C.ar    1  UNL1        0.0770
     11 C         142.2453  137.8398  161.8714 C.ar    1  UNL1        0.0409
     12 C         142.9813  137.7837  160.5656 C.ar    1  UNL1        0.1214
     13 N         144.3317  138.4048  160.7675 N.ar    1  UNL1       -0.1711
     14 N         144.4302  138.8447  162.1982 N.ar    1  UNL1       -0.2756
     15 H         145.2052  139.2853  162.6161 H       1  UNL1        0.1889
     16 C         140.1096  140.4383  169.8561 C.2     1  UNL1        0.2456
     17 N         139.7284  139.5820  171.0271 N.am    1  UNL1       -0.3252
     18 O         139.5458  141.8219  169.7236 O.2     1  UNL1       -0.2703
     19 H         140.0985  138.6739  171.1140 H       1  UNL1        0.1453
     20 H         139.1082  139.9282  171.7089 H       1  UNL1        0.1453
     21 N         139.3808  140.5898  166.9499 N.pl3   1  UNL1       -0.3327
     22 H         138.5353  140.1898  167.2573 H       1  UNL1        0.1468
     23 C         138.0658  140.5840  165.1338 C.3     1  UNL1        0.0029
     24 C         138.5439  141.9707  164.8197 C.3     1  UNL1        0.0282
     25 C         137.6282  141.8490  163.6378 C.3     1  UNL1        0.0029
     26 C         139.3595  141.8025  166.0672 C.3     1  UNL1        0.0702
     27 C         140.1503  143.0597  166.2770 C.3     1  UNL1        0.0208
     28 C         139.8233  144.0049  165.1592 C.3     1  UNL1        0.0160
     29 C         138.8305  143.3319  164.2585 C.3     1  UNL1        0.0404
     30 C         137.8549  142.9257  163.1940 C.3     1  UNL1        0.0156
     31 N         138.9131  144.6082  163.4748 N.3     1  UNL1       -0.3231
     32 H         139.5663  145.2454  163.9306 H       1  UNL1        0.1188
     33 H         137.9905  145.0409  163.4314 H       1  UNL1        0.1188
@<TRIPOS>BOND
     1    23    24    1
     2    24    25    1
     3    24    26    1
     4    26    21    1
     5    21     1    1
     6     1     2   ar
     7     2    16    1
     8    16    17   am
     9    16    18    2
    10     2     3   ar
    11     3     4   ar
    12     4     5   ar
    13     5     6   ar
    14     6     7   ar
    15     7    10    1
    16    10    11   ar
    17    11    12   ar
    18    12    13   ar
    19    13    14   ar
    20     7     8   ar
    21     8     9   ar
    22    26    27    1
    23    27    28    1
    24    28    29    1
    25    29    30    1
    26    29    31    1
    27    29    24    1
    28     9     1   ar
    29     9     5   ar
    30    14    10   ar
    31    21    22    1
    32    17    19    1
    33    17    20    1
    34    14    15    1
    35    31    32    1
    36    31    33    1
@<TRIPOS>MOLECULE
*****
 33 36 0 0 0
SMALL
GASTEIGER

@<TRIPOS>ATOM
      1 C         141.8732  140.0372  167.4703 C.ar    1  UNL1        0.0685
      2 C         141.6843  140.2182  168.9473 C.ar    1  UNL1        0.0885
      3 C         140.3161  140.0939  169.5492 C.ar    1  UNL1        0.1263
      4 N         139.1366  139.7886  168.6741 N.ar    1  UNL1       -0.1633
      5 N         139.3255  139.6076  167.1971 N.ar    1  UNL1       -0.2269
      6 C         138.3587  139.3022  166.0917 C.ar    1  UNL1        0.1019
      7 C         139.1296  139.2378  164.8065 C.ar    1  UNL1        0.0378
      8 C         140.5727  139.5034  165.1177 C.ar    1  UNL1        0.0234
      9 C         140.6938  139.7319  166.5952 C.ar    1  UNL1        0.0962
     10 C         138.5577  138.9570  163.4485 C.ar    1  UNL1        0.0770
     11 C         137.9043  139.9584  162.5428 C.ar    1  UNL1        0.0409
     12 C         137.4816  139.2460  161.2923 C.ar    1  UNL1        0.1214
     13 N         137.8737  137.8042  161.4251 N.ar    1  UNL1       -0.1711
     14 N         138.5388  137.6257  162.7578 N.ar    1  UNL1       -0.2756
     15 H         138.8996  136.7827  163.1162 H       1  UNL1        0.1889
     16 C         142.8638  140.5235  169.8224 C.2     1  UNL1        0.2456
     17 N         143.2430  139.5807  170.9257 N.am    1  UNL1       -0.3252
     18 O         143.6640  141.7714  169.5941 O.2     1  UNL1       -0.2703
     19 H         142.7178  138.7616  171.0755 H       1  UNL1        0.1453
     20 H         144.0171  139.7810  171.5000 H       1  UNL1        0.1453
     21 N         143.2415  140.1616  166.8684 N.pl3   1  UNL1       -0.3327
     22 H         143.9578  139.5443  167.1425 H       1  UNL1        0.1468
     23 C         144.3291  139.6039  164.9885 C.3     1  UNL1        0.0029
     24 C         144.2298  141.0327  164.5425 C.3     1  UNL1        0.0282
     25 C         144.9620  140.5402  163.3295 C.3     1  UNL1        0.0029
     26 C         143.5184  141.2264  165.8487 C.3     1  UNL1        0.0702
     27 C         143.1325  142.6719  165.9565 C.3     1  UNL1        0.0208
     28 C         143.6054  143.3715  164.7168 C.3     1  UNL1        0.0160
     29 C         144.2836  142.3583  163.8429 C.3     1  UNL1        0.0404
     30 C         145.0045  141.5887  162.7761 C.3     1  UNL1        0.0156
     31 N         144.4881  143.5232  162.9202 N.3     1  UNL1       -0.3231
     32 H         144.0835  144.3619  163.3366 H       1  UNL1        0.1188
     33 H         144.0332  143.3336  162.0272 H       1  UNL1        0.1188
@<TRIPOS>BOND
     1    23    24    1
     2    24    25    1
     3    24    26    1
     4    26    21    1
     5    21     1    1
     6     1     2   ar
     7     2    16    1
     8    16    17   am
     9    16    18    2
    10     2     3   ar
    11     3     4   ar
    12     4     5   ar
    13     5     6   ar
    14     6     7   ar
    15     7    10    1
    16    10    11   ar
    17    11    12   ar
    18    12    13   ar
    19    13    14   ar
    20     7     8   ar
    21     8     9   ar
    22    26    27    1
    23    27    28    1
    24    28    29    1
    25    29    30    1
    26    29    31    1
    27    29    24    1
    28     9     1   ar
    29     9     5   ar
    30    14    10   ar
    31    21    22    1
    32    17    19    1
    33    17    20    1
    34    14    15    1
    35    31    32    1
    36    31    33    1
@<TRIPOS>MOLECULE
*****
 33 36 0 0 0
SMALL
GASTEIGER

@<TRIPOS>ATOM
      1 C         140.9230  138.9794  164.8642 C.ar    1  UNL1        0.0685
      2 C         139.7460  138.3151  164.2135 C.ar    1  UNL1        0.0885
      3 C         138.4109  138.3175  164.8971 C.ar    1  UNL1        0.1263
      4 N         138.2527  138.9842  166.2315 N.ar    1  UNL1       -0.1633
      5 N         139.4297  139.6485  166.8822 N.ar    1  UNL1       -0.2269
      6 C         139.5765  140.3800  168.1835 C.ar    1  UNL1        0.1019
      7 C         141.0024  140.8298  168.3041 C.ar    1  UNL1        0.0378
      8 C         141.7368  140.3762  167.0773 C.ar    1  UNL1        0.0234
      9 C         140.7648  139.6461  166.1986 C.ar    1  UNL1        0.0962
     10 C         141.5906  141.5982  169.4501 C.ar    1  UNL1        0.0770
     11 C         142.7645  142.5292  169.3773 C.ar    1  UNL1        0.0409
     12 C         143.0076  143.0769  170.7524 C.ar    1  UNL1        0.1214
     13 N         141.9840  142.4845  171.6751 N.ar    1  UNL1       -0.1711
     14 N         141.1082  141.5706  170.8702 N.ar    1  UNL1       -0.2756
     15 H         140.3500  141.0449  171.2136 H       1  UNL1        0.1889
     16 C         139.9043  137.6484  162.8791 C.2     1  UNL1        0.2456
     17 N         138.7745  137.6676  161.8926 N.am    1  UNL1       -0.3252
     18 O         141.1921  136.9627  162.5313 O.2     1  UNL1       -0.2703
     19 H         137.9292  138.1177  162.1209 H       1  UNL1        0.1453
     20 H         138.8783  137.2300  161.0168 H       1  UNL1        0.1453
     21 N         142.2582  138.9770  164.1806 N.pl3   1  UNL1       -0.3327
     22 H         142.7776  138.1430  164.1180 H       1  UNL1        0.1468
     23 C         144.4272  139.4637  164.4737 C.3     1  UNL1        0.0029
     24 C         144.2195  140.7257  163.6901 C.3     1  UNL1        0.0282
     25 C         145.6805  140.9423  163.9517 C.3     1  UNL1        0.0029
     26 C         142.8019  140.2453  163.5923 C.3     1  UNL1        0.0702
     27 C         142.0234  141.2557  162.8030 C.3     1  UNL1        0.0208
     28 C         142.9598  142.3606  162.4130 C.3     1  UNL1        0.0160
     29 C         144.3171  142.0330  162.9612 C.3     1  UNL1        0.0404
     30 C         145.7577  141.9763  163.3752 C.3     1  UNL1        0.0156
     31 N         144.7159  143.3285  162.3189 N.3     1  UNL1       -0.3231
     32 H         143.9045  143.7460  161.8631 H       1  UNL1        0.1188
     33 H         145.4432  143.1544  161.6253 H       1  UNL1        0.1188
@<TRIPOS>BOND
     1    23    24    1
     2    24    25    1
     3    24    26    1
     4    26    21    1
     5    21     1    1
     6     1     2   ar
     7     2    16    1
     8    16    17   am
     9    16    18    2
    10     2     3   ar
    11     3     4   ar
    12     4     5   ar
    13     5     6   ar
    14     6     7   ar
    15     7    10    1
    16    10    11   ar
    17    11    12   ar
    18    12    13   ar
    19    13    14   ar
    20     7     8   ar
    21     8     9   ar
    22    26    27    1
    23    27    28    1
    24    28    29    1
    25    29    30    1
    26    29    31    1
    27    29    24    1
    28     9     1   ar
    29     9     5   ar
    30    14    10   ar
    31    21    22    1
    32    17    19    1
    33    17    20    1
    34    14    15    1
    35    31    32    1
    36    31    33    1
@<TRIPOS>MOLECULE
*****
 33 36 0 0 0
SMALL
GASTEIGER

@<TRIPOS>ATOM
      1 C         139.3510  141.5836  164.7803 C.ar    1  UNL1        0.0685
      2 C         138.3504  140.5344  164.3954 C.ar    1  UNL1        0.0885
      3 C         137.9848  139.4536  165.3690 C.ar    1  UNL1        0.1263
      4 N         138.6196  139.4219  166.7277 N.ar    1  UNL1       -0.1633
      5 N         139.6201  140.4711  167.1127 N.ar    1  UNL1       -0.2269
      6 C         140.4050  140.6958  168.3710 C.ar    1  UNL1        0.1019
      7 C         141.2558  141.9155  168.1750 C.ar    1  UNL1        0.0378
      8 C         140.9967  142.4446  166.7955 C.ar    1  UNL1        0.0234
      9 C         139.9858  141.5519  166.1390 C.ar    1  UNL1        0.0962
     10 C         142.2000  142.5029  169.1817 C.ar    1  UNL1        0.0770
     11 C         143.6752  142.2437  169.2630 C.ar    1  UNL1        0.0409
     12 C         144.2217  143.0333  170.4154 C.ar    1  UNL1        0.1214
     13 N         143.0843  143.7806  171.0462 N.ar    1  UNL1       -0.1711
     14 N         141.8347  143.4527  170.2837 N.ar    1  UNL1       -0.2756
     15 H         140.9332  143.8000  170.4733 H       1  UNL1        0.1889
     16 C         137.7156  140.5661  163.0366 C.2     1  UNL1        0.2456
     17 N         137.6374  139.3129  162.2160 N.am    1  UNL1       -0.3252
     18 O         137.1591  141.8508  162.4986 O.2     1  UNL1       -0.2703
     19 H         138.0027  138.4697  162.5692 H       1  UNL1        0.1453
     20 H         137.2208  139.3337  161.3242 H       1  UNL1        0.1453
     21 N         139.7166  142.6644  163.8066 N.pl3   1  UNL1       -0.3327
     22 H         139.0327  143.3026  163.4999 H       1  UNL1        0.1468
     23 C         140.8345  144.5830  164.1176 C.3     1  UNL1        0.0029
     24 C         142.0148  143.9739  163.4207 C.3     1  UNL1        0.0282
     25 C         142.6583  145.3024  163.6869 C.3     1  UNL1        0.0029
     26 C         141.1245  142.7727  163.3002 C.3     1  UNL1        0.0702
     27 C         141.8891  141.6989  162.5844 C.3     1  UNL1        0.0208
     28 C         143.2519  142.2364  162.2625 C.3     1  UNL1        0.0160
     29 C         143.3296  143.6424  162.7794 C.3     1  UNL1        0.0404
     30 C         143.6983  145.0402  163.1796 C.3     1  UNL1        0.0156
     31 N         144.7216  143.6032  162.2217 N.3     1  UNL1       -0.3231
     32 H         144.8932  142.6906  161.7997 H       1  UNL1        0.1188
     33 H         145.3933  143.7623  162.9726 H       1  UNL1        0.1188
@<TRIPOS>BOND
     1    23    24    1
     2    24    25    1
     3    24    26    1
     4    26    21    1
     5    21     1    1
     6     1     2   ar
     7     2    16    1
     8    16    17   am
     9    16    18    2
    10     2     3   ar
    11     3     4   ar
    12     4     5   ar
    13     5     6   ar
    14     6     7   ar
    15     7    10    1
    16    10    11   ar
    17    11    12   ar
    18    12    13   ar
    19    13    14   ar
    20     7     8   ar
    21     8     9   ar
    22    26    27    1
    23    27    28    1
    24    28    29    1
    25    29    30    1
    26    29    31    1
    27    29    24    1
    28     9     1   ar
    29     9     5   ar
    30    14    10   ar
    31    21    22    1
    32    17    19    1
    33    17    20    1
    34    14    15    1
    35    31    32    1
    36    31    33    1
@<TRIPOS>MOLECULE
*****
 33 36 0 0 0
SMALL
GASTEIGER

@<TRIPOS>ATOM
      1 C         142.1626  140.9753  167.2507 C.ar    1  UNL1        0.0685
      2 C         142.0051  140.7259  168.7214 C.ar    1  UNL1        0.0885
      3 C         141.0439  141.5520  169.5235 C.ar    1  UNL1        0.1263
      4 N         140.2400  142.6276  168.8549 N.ar    1  UNL1       -0.1633
      5 N         140.3975  142.8770  167.3842 N.ar    1  UNL1       -0.2269
      6 C         139.7455  143.8599  166.4574 C.ar    1  UNL1        0.1019
      7 C         140.3039  143.6411  165.0825 C.ar    1  UNL1        0.0378
      8 C         141.3009  142.5231  165.1595 C.ar    1  UNL1        0.0234
      9 C         141.3588  142.0508  166.5821 C.ar    1  UNL1        0.0962
     10 C         139.9307  144.4061  163.8473 C.ar    1  UNL1        0.0770
     11 C         140.8712  145.1798  162.9717 C.ar    1  UNL1        0.0409
     12 C         140.0734  145.7835  161.8542 C.ar    1  UNL1        0.1214
     13 N         138.6397  145.3829  162.0391 N.ar    1  UNL1       -0.1711
     14 N         138.5516  144.5315  163.2710 N.ar    1  UNL1       -0.2756
     15 H         137.7324  144.1263  163.6369 H       1  UNL1        0.1889
     16 C         142.8090  139.6503  169.3900 C.2     1  UNL1        0.2456
     17 N         143.2281  139.8076  170.8216 N.am    1  UNL1       -0.3252
     18 O         143.1936  138.4175  168.6270 O.2     1  UNL1       -0.2703
     19 H         142.9757  140.6167  171.3224 H       1  UNL1        0.1453
     20 H         143.7557  139.1016  171.2604 H       1  UNL1        0.1453
     21 N         143.1239  140.1491  166.4486 N.pl3   1  UNL1       -0.3327
     22 H         144.0884  140.1906  166.6413 H       1  UNL1        0.1468
     23 C         144.2863  140.0150  164.5359 C.3     1  UNL1        0.0029
     24 C         143.2619  139.0507  164.0155 C.3     1  UNL1        0.0282
     25 C         144.1225  139.0435  162.7870 C.3     1  UNL1        0.0029
     26 C         142.6155  139.2596  165.3528 C.3     1  UNL1        0.0702
     27 C         141.3715  138.4230  165.4021 C.3     1  UNL1        0.0208
     28 C         141.2491  137.6971  164.0953 C.3     1  UNL1        0.0160
     29 C         142.4174  138.0850  163.2383 C.3     1  UNL1        0.0404
     30 C         143.4545  138.2796  162.1722 C.3     1  UNL1        0.0156
     31 N         141.7897  137.1600  162.2382 N.3     1  UNL1       -0.3231
     32 H         140.9365  136.7625  162.6313 H       1  UNL1        0.1188
     33 H         142.4423  136.4091  162.0132 H       1  UNL1        0.1188
@<TRIPOS>BOND
     1    23    24    1
     2    24    25    1
     3    24    26    1
     4    26    21    1
     5    21     1    1
     6     1     2   ar
     7     2    16    1
     8    16    17   am
     9    16    18    2
    10     2     3   ar
    11     3     4   ar
    12     4     5   ar
    13     5     6   ar
    14     6     7   ar
    15     7    10    1
    16    10    11   ar
    17    11    12   ar
    18    12    13   ar
    19    13    14   ar
    20     7     8   ar
    21     8     9   ar
    22    26    27    1
    23    27    28    1
    24    28    29    1
    25    29    30    1
    26    29    31    1
    27    29    24    1
    28     9     1   ar
    29     9     5   ar
    30    14    10   ar
    31    21    22    1
    32    17    19    1
    33    17    20    1
    34    14    15    1
    35    31    32    1
    36    31    33    1
@<TRIPOS>MOLECULE
*****
 33 36 0 0 0
SMALL
GASTEIGER

@<TRIPOS>ATOM
      1 C         140.6904  140.3504  167.3606 C.ar    1  UNL1        0.0685
      2 C         140.5619  140.6584  168.8230 C.ar    1  UNL1        0.0885
      3 C         141.4726  141.6656  169.4601 C.ar    1  UNL1        0.1263
      4 N         142.5118  142.3650  168.6349 N.ar    1  UNL1       -0.1633
      5 N         142.6403  142.0569  167.1725 N.ar    1  UNL1       -0.2269
      6 C         143.5630  142.5831  166.1133 C.ar    1  UNL1        0.1019
      7 C         143.2225  141.9009  164.8215 C.ar    1  UNL1        0.0378
      8 C         142.0894  140.9532  165.0823 C.ar    1  UNL1        0.0234
      9 C         141.7296  141.0496  166.5353 C.ar    1  UNL1        0.0962
     10 C         143.8966  142.1268  163.5007 C.ar    1  UNL1        0.0770
     11 C         143.5700  143.2123  162.5184 C.ar    1  UNL1        0.0409
     12 C         144.4873  143.0632  161.3409 C.ar    1  UNL1        0.1214
     13 N         145.3809  141.8856  161.5955 N.ar    1  UNL1       -0.1711
     14 N         145.0158  141.3068  162.9304 N.ar    1  UNL1       -0.2756
     15 H         145.4368  140.5260  163.3573 H       1  UNL1        0.1889
     16 C         139.5226  139.9591  169.6482 C.2     1  UNL1        0.2456
     17 N         139.7958  139.6451  171.0893 N.am    1  UNL1       -0.3252
     18 O         138.2103  139.5738  169.0324 O.2     1  UNL1       -0.2703
     19 H         140.6571  139.8980  171.4935 H       1  UNL1        0.1453
     20 H         139.1137  139.1861  171.6309 H       1  UNL1        0.1453
     21 N         139.7797  139.3431  166.7235 N.pl3   1  UNL1       -0.3327
     22 H         139.6493  138.4622  167.1434 H       1  UNL1        0.1468
     23 C         139.7388  137.8227  165.0759 C.3     1  UNL1        0.0029
     24 C         138.9414  138.7856  164.2472 C.3     1  UNL1        0.0282
     25 C         138.9820  137.6921  163.2213 C.3     1  UNL1        0.0029
     26 C         139.0675  139.6778  165.4463 C.3     1  UNL1        0.0702
     27 C         138.3565  140.9636  165.1443 C.3     1  UNL1        0.0208
     28 C         137.7910  140.8660  163.7584 C.3     1  UNL1        0.0160
     29 C         138.1525  139.5199  163.2040 C.3     1  UNL1        0.0404
     30 C         138.3580  138.2729  162.3962 C.3     1  UNL1        0.0156
     31 N         137.4065  139.9936  161.9919 N.3     1  UNL1       -0.3231
     32 H         137.0547  140.9368  162.1563 H       1  UNL1        0.1188
     33 H         136.6238  139.3660  161.8076 H       1  UNL1        0.1188
@<TRIPOS>BOND
     1    23    24    1
     2    24    25    1
     3    24    26    1
     4    26    21    1
     5    21     1    1
     6     1     2   ar
     7     2    16    1
     8    16    17   am
     9    16    18    2
    10     2     3   ar
    11     3     4   ar
    12     4     5   ar
    13     5     6   ar
    14     6     7   ar
    15     7    10    1
    16    10    11   ar
    17    11    12   ar
    18    12    13   ar
    19    13    14   ar
    20     7     8   ar
    21     8     9   ar
    22    26    27    1
    23    27    28    1
    24    28    29    1
    25    29    30    1
    26    29    31    1
    27    29    24    1
    28     9     1   ar
    29     9     5   ar
    30    14    10   ar
    31    21    22    1
    32    17    19    1
    33    17    20    1
    34    14    15    1
    35    31    32    1
    36    31    33    1
@<TRIPOS>MOLECULE
*****
 33 36 0 0 0
SMALL
GASTEIGER

@<TRIPOS>ATOM
      1 C         139.1309  141.4464  163.1304 C.ar    1  UNL1        0.0685
      2 C         138.5893  140.7743  161.9036 C.ar    1  UNL1        0.0885
      3 C         138.0463  139.3788  161.9909 C.ar    1  UNL1        0.1263
      4 N         138.0448  138.6553  163.3049 N.ar    1  UNL1       -0.1633
      5 N         138.5865  139.3274  164.5316 N.ar    1  UNL1       -0.2269
      6 C         138.7153  138.8679  165.9537 C.ar    1  UNL1        0.1019
      7 C         139.3379  139.9795  166.7453 C.ar    1  UNL1        0.0378
      8 C         139.5940  141.1259  165.8126 C.ar    1  UNL1        0.0234
      9 C         139.1295  140.7229  164.4444 C.ar    1  UNL1        0.0962
     10 C         139.6498  139.9498  168.2123 C.ar    1  UNL1        0.0770
     11 C         141.0145  140.0556  168.8258 C.ar    1  UNL1        0.0409
     12 C         140.8600  139.9804  170.3159 C.ar    1  UNL1        0.1214
     13 N         139.3997  139.8280  170.6234 N.ar    1  UNL1       -0.1711
     14 N         138.6518  139.8091  169.3232 N.ar    1  UNL1       -0.2756
     15 H         137.6770  139.7201  169.2175 H       1  UNL1        0.1889
     16 C         138.5908  141.4978  160.5896 C.2     1  UNL1        0.2456
     17 N         139.0582  140.7973  159.3483 N.am    1  UNL1       -0.3252
     18 O         138.1249  142.9217  160.5169 O.2     1  UNL1       -0.2703
     19 H         139.3640  139.8627  159.3961 H       1  UNL1        0.1453
     20 H         139.0591  141.2721  158.4859 H       1  UNL1        0.1453
     21 N         139.6740  142.8419  163.0431 N.pl3   1  UNL1       -0.3327
     22 H         139.0830  143.6114  163.2100 H       1  UNL1        0.1468
     23 C         140.7673  144.5396  164.0178 C.3     1  UNL1        0.0029
     24 C         141.9978  144.1458  163.2556 C.3     1  UNL1        0.0282
     25 C         142.6207  145.3090  163.9689 C.3     1  UNL1        0.0029
     26 C         141.1176  143.0650  162.7016 C.3     1  UNL1        0.0702
     27 C         141.9342  142.2463  161.7462 C.3     1  UNL1        0.0208
     28 C         143.3191  142.8212  161.7097 C.3     1  UNL1        0.0160
     29 C         143.3584  143.9952  162.6426 C.3     1  UNL1        0.0404
     30 C         143.6969  145.1899  163.4840 C.3     1  UNL1        0.0156
     31 N         144.7899  144.0943  162.2054 N.3     1  UNL1       -0.3231
     32 H         144.9926  143.3533  161.5344 H       1  UNL1        0.1188
     33 H         145.4006  143.9951  163.0163 H       1  UNL1        0.1188
@<TRIPOS>BOND
     1    23    24    1
     2    24    25    1
     3    24    26    1
     4    26    21    1
     5    21     1    1
     6     1     2   ar
     7     2    16    1
     8    16    17   am
     9    16    18    2
    10     2     3   ar
    11     3     4   ar
    12     4     5   ar
    13     5     6   ar
    14     6     7   ar
    15     7    10    1
    16    10    11   ar
    17    11    12   ar
    18    12    13   ar
    19    13    14   ar
    20     7     8   ar
    21     8     9   ar
    22    26    27    1
    23    27    28    1
    24    28    29    1
    25    29    30    1
    26    29    31    1
    27    29    24    1
    28     9     1   ar
    29     9     5   ar
    30    14    10   ar
    31    21    22    1
    32    17    19    1
    33    17    20    1
    34    14    15    1
    35    31    32    1
    36    31    33    1
@<TRIPOS>MOLECULE
*****
 33 36 0 0 0
SMALL
GASTEIGER

@<TRIPOS>ATOM
      1 C         140.2179  139.6776  163.9605 C.ar    1  UNL1        0.0685
      2 C         139.7374  138.3790  163.3836 C.ar    1  UNL1        0.0885
      3 C         139.0116  137.3952  164.2526 C.ar    1  UNL1        0.1263
      4 N         138.7663  137.7099  165.6986 N.ar    1  UNL1       -0.1633
      5 N         139.2468  139.0085  166.2755 N.ar    1  UNL1       -0.2269
      6 C         139.1517  139.5903  167.6548 C.ar    1  UNL1        0.1019
      7 C         139.8187  140.9337  167.6381 C.ar    1  UNL1        0.0378
      8 C         140.3261  141.1822  166.2486 C.ar    1  UNL1        0.0234
      9 C         139.9726  139.9923  165.4064 C.ar    1  UNL1        0.0962
     10 C         139.9546  141.8652  168.8060 C.ar    1  UNL1        0.0770
     11 C         140.5578  143.2381  168.7732 C.ar    1  UNL1        0.0409
     12 C         140.4871  143.8087  170.1586 C.ar    1  UNL1        0.1214
     13 N         139.8402  142.7884  171.0478 N.ar    1  UNL1       -0.1711
     14 N         139.5110  141.5872  170.2117 N.ar    1  UNL1       -0.2756
     15 H         139.0797  140.7614  170.5298 H       1  UNL1        0.1889
     16 C         139.9827  138.0643  161.9376 C.2     1  UNL1        0.2456
     17 N         138.8239  137.8430  161.0112 N.am    1  UNL1       -0.3252
     18 O         141.3866  137.9710  161.4180 O.2     1  UNL1       -0.2703
     19 H         137.9024  137.9043  161.3522 H       1  UNL1        0.1453
     20 H         138.9848  137.6365  160.0622 H       1  UNL1        0.1453
     21 N         140.9437  140.6614  163.0914 N.pl3   1  UNL1       -0.3327
     22 H         140.4443  141.2047  162.4397 H       1  UNL1        0.1468
     23 C         141.8954  142.5641  162.3831 C.3     1  UNL1        0.0029
     24 C         143.2293  142.0155  162.7951 C.3     1  UNL1        0.0282
     25 C         143.7492  143.3283  162.2888 C.3     1  UNL1        0.0029
     26 C         142.4305  140.8175  163.2152 C.3     1  UNL1        0.0702
     27 C         143.3794  139.8029  163.7810 C.3     1  UNL1        0.0208
     28 C         144.7647  140.3739  163.7105 C.3     1  UNL1        0.0160
     29 C         144.6719  141.7413  163.1011 C.3     1  UNL1        0.0404
     30 C         144.8902  143.1114  162.5309 C.3     1  UNL1        0.0156
     31 N         146.1601  141.7536  163.2880 N.3     1  UNL1       -0.3231
     32 H         146.4570  140.8740  163.7106 H       1  UNL1        0.1188
     33 H         146.4198  142.5286  163.8982 H       1  UNL1        0.1188
@<TRIPOS>BOND
     1    23    24    1
     2    24    25    1
     3    24    26    1
     4    26    21    1
     5    21     1    1
     6     1     2   ar
     7     2    16    1
     8    16    17   am
     9    16    18    2
    10     2     3   ar
    11     3     4   ar
    12     4     5   ar
    13     5     6   ar
    14     6     7   ar
    15     7    10    1
    16    10    11   ar
    17    11    12   ar
    18    12    13   ar
    19    13    14   ar
    20     7     8   ar
    21     8     9   ar
    22    26    27    1
    23    27    28    1
    24    28    29    1
    25    29    30    1
    26    29    31    1
    27    29    24    1
    28     9     1   ar
    29     9     5   ar
    30    14    10   ar
    31    21    22    1
    32    17    19    1
    33    17    20    1
    34    14    15    1
    35    31    32    1
    36    31    33    1
@<TRIPOS>MOLECULE
*****
 33 36 0 0 0
SMALL
GASTEIGER

@<TRIPOS>ATOM
      1 C         143.4260  141.2254  164.7087 C.ar    1  UNL1        0.0685
      2 C         144.1545  140.1049  164.0277 C.ar    1  UNL1        0.0885
      3 C         144.3671  138.8041  164.7435 C.ar    1  UNL1        0.1263
      4 N         143.8512  138.6235  166.1404 N.ar    1  UNL1       -0.1633
      5 N         143.1227  139.7440  166.8214 N.ar    1  UNL1       -0.2269
      6 C         142.5050  139.8580  168.1836 C.ar    1  UNL1        0.1019
      7 C         141.9107  141.2295  168.3096 C.ar    1  UNL1        0.0378
      8 C         142.1610  141.9630  167.0254 C.ar    1  UNL1        0.0234
      9 C         142.9100  141.0449  166.1056 C.ar    1  UNL1        0.0962
     10 C         141.1922  141.7722  169.5093 C.ar    1  UNL1        0.0770
     11 C         140.1837  142.8826  169.5053 C.ar    1  UNL1        0.0409
     12 C         139.7242  143.0964  170.9171 C.ar    1  UNL1        0.1214
     13 N         140.4487  142.1182  171.7937 N.ar    1  UNL1       -0.1711
     14 N         141.3560  141.2998  170.9235 N.ar    1  UNL1       -0.2756
     15 H         141.9540  140.5791  171.2273 H       1  UNL1        0.1889
     16 C         144.6705  140.2855  162.6308 C.2     1  UNL1        0.2456
     17 N         144.4205  139.2282  161.5966 N.am    1  UNL1       -0.3252
     18 O         145.4362  141.5232  162.2682 O.2     1  UNL1       -0.2703
     19 H         143.9179  138.4158  161.8346 H       1  UNL1        0.1453
     20 H         144.7591  139.3466  160.6797 H       1  UNL1        0.1453
     21 N         143.2133  142.5263  163.9929 N.pl3   1  UNL1       -0.3327
     22 H         143.9461  143.1812  163.9339 H       1  UNL1        0.1468
     23 C         142.6028  144.6679  163.7318 C.3     1  UNL1        0.0029
     24 C         141.3186  144.1960  163.1169 C.3     1  UNL1        0.0282
     25 C         141.0215  145.6612  162.9954 C.3     1  UNL1        0.0029
     26 C         141.8842  142.8294  163.3669 C.3     1  UNL1        0.0702
     27 C         140.8875  141.8192  162.8812 C.3     1  UNL1        0.0208
     28 C         139.7059  142.5614  162.3309 C.3     1  UNL1        0.0160
     29 C         139.9723  144.0303  162.4766 C.3     1  UNL1        0.0404
     30 C         139.9566  145.5302  162.4889 C.3     1  UNL1        0.0156
     31 N         138.6227  144.1782  161.8388 N.3     1  UNL1       -0.3231
     32 H         138.2360  143.2548  161.6434 H       1  UNL1        0.1188
     33 H         138.7139  144.7001  160.9672 H       1  UNL1        0.1188
@<TRIPOS>BOND
     1    23    24    1
     2    24    25    1
     3    24    26    1
     4    26    21    1
     5    21     1    1
     6     1     2   ar
     7     2    16    1
     8    16    17   am
     9    16    18    2
    10     2     3   ar
    11     3     4   ar
    12     4     5   ar
    13     5     6   ar
    14     6     7   ar
    15     7    10    1
    16    10    11   ar
    17    11    12   ar
    18    12    13   ar
    19    13    14   ar
    20     7     8   ar
    21     8     9   ar
    22    26    27    1
    23    27    28    1
    24    28    29    1
    25    29    30    1
    26    29    31    1
    27    29    24    1
    28     9     1   ar
    29     9     5   ar
    30    14    10   ar
    31    21    22    1
    32    17    19    1
    33    17    20    1
    34    14    15    1
    35    31    32    1
    36    31    33    1
