@<TRIPOS>MOLECULE
*****
 28 29 0 0 0
SMALL
GASTEIGER

@<TRIPOS>ATOM
      1 C         141.1929  137.3938  164.4208 C.3     1  UNL1        0.0488
      2 C         139.7128  137.6089  164.5352 C.3     1  UNL1        0.0212
      3 C         138.9772  138.3500  163.4584 C.3     1  UNL1        0.0722
      4 C         138.7305  142.8415  163.5839 C.3     1  UNL1        0.1018
      5 C         139.5751  142.1655  162.5449 C.3     1  UNL1        0.0285
      6 C         139.6574  140.6684  162.5030 C.3     1  UNL1        0.0727
      7 N         138.8950  139.8472  163.5002 N.3     1  UNL1       -0.2727
      8 C         138.0504  140.5232  164.5393 C.3     1  UNL1        0.0727
      9 C         137.9682  142.0203  164.5811 C.3     1  UNL1        0.0285
     10 C         138.6483  144.3387  163.6258 C.2     1  UNL1        0.3165
     11 O         138.6893  145.0555  164.9427 O.2     1  UNL1       -0.2501
     12 O         138.5251  145.1190  162.3507 O.3     1  UNL1       -0.4485
     13 C         140.6570  145.3951  160.8915 C.3     1  UNL1        0.0513
     14 C         139.6717  145.9593  161.8718 C.3     1  UNL1        0.2086
     15 C         142.1410  138.5031  164.7683 C.3     1  UNL1        0.2054
     16 O         142.6860  138.6151  166.1613 O.3     1  UNL1       -0.4755
     17 C         142.0349  139.5368  167.1495 C.ar    1  UNL1        0.1386
     18 C         140.9282  140.4484  166.7086 C.ar    1  UNL1        0.0383
     19 C         140.2771  141.3700  167.6968 C.ar    1  UNL1        0.0230
     20 C         140.7326  141.3801  169.1259 C.ar    1  UNL1        0.1219
     21 C         141.8392  140.4686  169.5668 C.ar    1  UNL1        0.0230
     22 C         142.4904  139.5469  168.5786 C.ar    1  UNL1        0.0383
     23 S         140.0815  142.3018  170.1141 S.O2    1  UNL1        0.0572
     24 N         139.4303  143.2234  171.1024 N.3     1  UNL1       -0.2035
     25 O         139.0059  141.2843  170.3543 O.2     1  UNL1       -0.1532
     26 O         141.1572  143.3192  169.8739 O.2     1  UNL1       -0.1532
     27 H         138.5931  142.7800  171.4803 H       1  UNL1        0.1442
     28 H         139.1734  144.0941  170.6372 H       1  UNL1        0.1442
@<TRIPOS>BOND
     1    13    14    1
     2    14    12    1
     3    12    10    1
     4    10    11    2
     5    10     4    1
     6     4     5    1
     7     5     6    1
     8     6     7    1
     9     7     3    1
    10     3     2    1
    11     2     1    1
    12     1    15    1
    13    15    16    1
    14    16    17    1
    15    17    18   ar
    16    18    19   ar
    17    19    20   ar
    18    20    23    1
    19    23    24    1
    20    23    25    2
    21    23    26    2
    22    20    21   ar
    23    21    22   ar
    24     7     8    1
    25     8     9    1
    26     9     4    1
    27    22    17   ar
    28    24    27    1
    29    24    28    1
@<TRIPOS>MOLECULE
*****
 28 29 0 0 0
SMALL
GASTEIGER

@<TRIPOS>ATOM
      1 C         142.9289  139.9269  167.6761 C.3     1  UNL1        0.0488
      2 C         142.8894  138.7350  166.7663 C.3     1  UNL1        0.0212
      3 C         143.7603  138.6940  165.5458 C.3     1  UNL1        0.0722
      4 C         143.9726  142.2622  162.8121 C.3     1  UNL1        0.1018
      5 C         142.6415  141.6746  163.1764 C.3     1  UNL1        0.0285
      6 C         142.5707  140.4852  164.0876 C.3     1  UNL1        0.0727
      7 N         143.8311  139.8834  164.6345 N.3     1  UNL1       -0.2727
      8 C         145.1622  140.4710  164.2703 C.3     1  UNL1        0.0727
      9 C         145.2330  141.6604  163.3591 C.3     1  UNL1        0.0285
     10 C         144.0434  143.4516  161.9009 C.2     1  UNL1        0.3165
     11 O         143.8948  143.2711  160.4192 O.2     1  UNL1       -0.2501
     12 O         144.2627  144.8214  162.4713 O.3     1  UNL1       -0.4485
     13 C         142.0929  145.3682  163.7916 C.3     1  UNL1        0.0513
     14 C         143.5849  145.2191  163.7490 C.3     1  UNL1        0.2086
     15 C         141.9137  140.0684  168.7713 C.3     1  UNL1        0.2054
     16 O         140.7171  140.9515  168.5753 O.3     1  UNL1       -0.4755
     17 C         139.9789  140.9353  167.2697 C.ar    1  UNL1        0.1386
     18 C         139.1653  139.7359  166.8829 C.ar    1  UNL1        0.0383
     19 C         138.4270  139.7198  165.5772 C.ar    1  UNL1        0.0230
     20 C         138.5024  140.9030  164.6583 C.ar    1  UNL1        0.1219
     21 C         139.3160  142.1023  165.0451 C.ar    1  UNL1        0.0230
     22 C         140.0543  142.1185  166.3508 C.ar    1  UNL1        0.0383
     23 S         137.7642  140.8868  163.3527 S.O2    1  UNL1        0.0572
     24 N         137.0259  140.8707  162.0470 N.3     1  UNL1       -0.2035
     25 O         137.4380  142.3414  163.5192 O.2     1  UNL1       -0.1532
     26 O         138.0905  139.4323  163.1862 O.2     1  UNL1       -0.1532
     27 H         136.6495  141.7997  161.8578 H       1  UNL1        0.1442
     28 H         136.2612  140.1977  162.0971 H       1  UNL1        0.1442
@<TRIPOS>BOND
     1    13    14    1
     2    14    12    1
     3    12    10    1
     4    10    11    2
     5    10     4    1
     6     4     5    1
     7     5     6    1
     8     6     7    1
     9     7     3    1
    10     3     2    1
    11     2     1    1
    12     1    15    1
    13    15    16    1
    14    16    17    1
    15    17    18   ar
    16    18    19   ar
    17    19    20   ar
    18    20    23    1
    19    23    24    1
    20    23    25    2
    21    23    26    2
    22    20    21   ar
    23    21    22   ar
    24     7     8    1
    25     8     9    1
    26     9     4    1
    27    22    17   ar
    28    24    27    1
    29    24    28    1
@<TRIPOS>MOLECULE
*****
 28 29 0 0 0
SMALL
GASTEIGER

@<TRIPOS>ATOM
      1 C         144.8922  139.7965  164.0696 C.3     1  UNL1        0.0488
      2 C         145.1207  141.2761  164.1625 C.3     1  UNL1        0.0212
      3 C         144.8955  142.1465  162.9618 C.3     1  UNL1        0.0722
      4 C         141.1141  144.5605  162.6101 C.3     1  UNL1        0.1018
      5 C         141.2637  143.2840  161.8367 C.3     1  UNL1        0.0285
      6 C         142.5242  142.4793  161.9540 C.3     1  UNL1        0.0727
      7 N         143.6350  142.9512  162.8446 N.3     1  UNL1       -0.2727
      8 C         143.4855  144.2276  163.6179 C.3     1  UNL1        0.0727
      9 C         142.2250  145.0323  163.5007 C.3     1  UNL1        0.0285
     10 C         139.8536  145.3651  162.4928 C.2     1  UNL1        0.3165
     11 O         139.8866  146.7218  161.8539 O.2     1  UNL1       -0.2501
     12 O         138.5602  144.8131  163.0145 O.3     1  UNL1       -0.4485
     13 C         138.6022  144.9405  165.6092 C.3     1  UNL1        0.0513
     14 C         138.5203  144.1302  164.3495 C.3     1  UNL1        0.2086
     15 C         143.4941  139.2534  164.0476 C.3     1  UNL1        0.2054
     16 O         142.3546  140.0956  164.5399 O.3     1  UNL1       -0.4755
     17 C         142.2966  140.5112  165.9800 C.ar    1  UNL1        0.1386
     18 C         141.8325  141.8903  166.3445 C.ar    1  UNL1        0.0383
     19 C         141.7745  142.3059  167.7846 C.ar    1  UNL1        0.0230
     20 C         142.1806  141.3425  168.8602 C.ar    1  UNL1        0.1219
     21 C         142.6447  139.9635  168.4957 C.ar    1  UNL1        0.0230
     22 C         142.7027  139.5478  167.0556 C.ar    1  UNL1        0.0383
     23 S         142.1227  141.7581  170.3002 S.O2    1  UNL1        0.0572
     24 N         142.0646  142.1738  171.7404 N.3     1  UNL1       -0.2035
     25 O         140.8552  140.9753  170.4752 O.2     1  UNL1       -0.1532
     26 O         143.3901  142.5410  170.1253 O.2     1  UNL1       -0.1532
     27 H         141.2389  141.7661  172.1789 H       1  UNL1        0.1442
     28 H         142.0136  143.1908  171.7990 H       1  UNL1        0.1442
@<TRIPOS>BOND
     1    13    14    1
     2    14    12    1
     3    12    10    1
     4    10    11    2
     5    10     4    1
     6     4     5    1
     7     5     6    1
     8     6     7    1
     9     7     3    1
    10     3     2    1
    11     2     1    1
    12     1    15    1
    13    15    16    1
    14    16    17    1
    15    17    18   ar
    16    18    19   ar
    17    19    20   ar
    18    20    23    1
    19    23    24    1
    20    23    25    2
    21    23    26    2
    22    20    21   ar
    23    21    22   ar
    24     7     8    1
    25     8     9    1
    26     9     4    1
    27    22    17   ar
    28    24    27    1
    29    24    28    1
@<TRIPOS>MOLECULE
*****
 28 29 0 0 0
SMALL
GASTEIGER

@<TRIPOS>ATOM
      1 C         139.1453  137.6793  165.2162 C.3     1  UNL1        0.0488
      2 C         140.5137  137.8998  164.6427 C.3     1  UNL1        0.0212
      3 C         140.6669  138.3569  163.2223 C.3     1  UNL1        0.0722
      4 C         139.4885  142.5431  162.0662 C.3     1  UNL1        0.1018
      5 C         140.7749  142.3013  162.7988 C.3     1  UNL1        0.0285
      6 C         141.1677  140.9059  163.1841 C.3     1  UNL1        0.0727
      7 N         140.2741  139.7523  162.8370 N.3     1  UNL1       -0.2727
      8 C         138.9877  139.9941  162.1044 C.3     1  UNL1        0.0727
      9 C         138.5949  141.3895  161.7191 C.3     1  UNL1        0.0285
     10 C         139.0956  143.9385  161.6809 C.2     1  UNL1        0.3165
     11 O         139.6475  144.5545  160.4295 O.2     1  UNL1       -0.2501
     12 O         138.1510  144.7180  162.5469 O.3     1  UNL1       -0.4485
     13 C         138.6978  144.7747  165.0862 C.3     1  UNL1        0.0513
     14 C         137.8673  144.2615  163.9473 C.3     1  UNL1        0.2086
     15 C         138.3037  138.8531  165.6211 C.3     1  UNL1        0.2054
     16 O         138.9193  140.2170  165.7250 O.3     1  UNL1       -0.4755
     17 C         139.5803  140.6463  167.0012 C.ar    1  UNL1        0.1386
     18 C         140.4283  141.8834  167.0274 C.ar    1  UNL1        0.0383
     19 C         141.0893  142.3127  168.3037 C.ar    1  UNL1        0.0230
     20 C         140.9024  141.5049  169.5537 C.ar    1  UNL1        0.1219
     21 C         140.0545  140.2678  169.5275 C.ar    1  UNL1        0.0230
     22 C         139.3935  139.8385  168.2512 C.ar    1  UNL1        0.0383
     23 S         141.5634  141.9342  170.8299 S.O2    1  UNL1        0.0572
     24 N         142.2244  142.3634  172.1062 N.3     1  UNL1       -0.2035
     25 O         140.4980  141.2316  171.6180 O.2     1  UNL1       -0.1532
     26 O         142.6288  142.6367  170.0417 O.2     1  UNL1       -0.1532
     27 H         141.6912  142.0103  172.9007 H       1  UNL1        0.1442
     28 H         142.2587  143.3821  172.1454 H       1  UNL1        0.1442
@<TRIPOS>BOND
     1    13    14    1
     2    14    12    1
     3    12    10    1
     4    10    11    2
     5    10     4    1
     6     4     5    1
     7     5     6    1
     8     6     7    1
     9     7     3    1
    10     3     2    1
    11     2     1    1
    12     1    15    1
    13    15    16    1
    14    16    17    1
    15    17    18   ar
    16    18    19   ar
    17    19    20   ar
    18    20    23    1
    19    23    24    1
    20    23    25    2
    21    23    26    2
    22    20    21   ar
    23    21    22   ar
    24     7     8    1
    25     8     9    1
    26     9     4    1
    27    22    17   ar
    28    24    27    1
    29    24    28    1
@<TRIPOS>MOLECULE
*****
 28 29 0 0 0
SMALL
GASTEIGER

@<TRIPOS>ATOM
      1 C         144.0562  144.1901  163.6218 C.3     1  UNL1        0.0488
      2 C         143.0301  145.2518  163.8867 C.3     1  UNL1        0.0212
      3 C         141.5811  144.9799  163.6105 C.3     1  UNL1        0.0722
      4 C         139.7264  141.1014  164.9398 C.3     1  UNL1        0.1018
      5 C         139.5835  142.3305  165.7877 C.3     1  UNL1        0.0285
      6 C         140.2017  143.6233  165.3446 C.3     1  UNL1        0.0727
      7 N         140.9628  143.6871  164.0536 N.3     1  UNL1       -0.2727
      8 C         141.1057  142.4580  163.2058 C.3     1  UNL1        0.0727
      9 C         140.4875  141.1651  163.6489 C.3     1  UNL1        0.0285
     10 C         139.1081  139.8085  165.3829 C.2     1  UNL1        0.3165
     11 O         138.6173  139.6560  166.7921 O.2     1  UNL1       -0.2501
     12 O         138.9807  138.6682  164.4169 O.3     1  UNL1       -0.4485
     13 C         141.1185  137.1964  164.3003 C.3     1  UNL1        0.0513
     14 C         139.6810  137.3705  164.6918 C.3     1  UNL1        0.2086
     15 C         144.5412  143.3195  164.7429 C.3     1  UNL1        0.2054
     16 O         144.1003  141.8881  164.8256 O.3     1  UNL1       -0.4755
     17 C         143.3721  141.3967  166.0413 C.ar    1  UNL1        0.1386
     18 C         142.9679  139.9556  166.1421 C.ar    1  UNL1        0.0383
     19 C         142.2397  139.4642  167.3578 C.ar    1  UNL1        0.0230
     20 C         141.9156  140.4137  168.4729 C.ar    1  UNL1        0.1219
     21 C         142.3197  141.8547  168.3722 C.ar    1  UNL1        0.0230
     22 C         143.0480  142.3462  167.1564 C.ar    1  UNL1        0.0383
     23 S         141.1874  139.9223  169.6887 S.O2    1  UNL1        0.0572
     24 N         140.4591  139.4307  170.9045 N.3     1  UNL1       -0.2035
     25 O         142.2719  138.9148  169.9310 O.2     1  UNL1       -0.1532
     26 O         140.1029  140.9297  169.4463 O.2     1  UNL1       -0.1532
     27 H         140.9894  138.6734  171.3354 H       1  UNL1        0.1442
     28 H         139.5371  139.0889  170.6335 H       1  UNL1        0.1442
@<TRIPOS>BOND
     1    13    14    1
     2    14    12    1
     3    12    10    1
     4    10    11    2
     5    10     4    1
     6     4     5    1
     7     5     6    1
     8     6     7    1
     9     7     3    1
    10     3     2    1
    11     2     1    1
    12     1    15    1
    13    15    16    1
    14    16    17    1
    15    17    18   ar
    16    18    19   ar
    17    19    20   ar
    18    20    23    1
    19    23    24    1
    20    23    25    2
    21    23    26    2
    22    20    21   ar
    23    21    22   ar
    24     7     8    1
    25     8     9    1
    26     9     4    1
    27    22    17   ar
    28    24    27    1
    29    24    28    1
@<TRIPOS>MOLECULE
*****
 28 29 0 0 0
SMALL
GASTEIGER

@<TRIPOS>ATOM
      1 C         140.3936  138.2439  164.4638 C.3     1  UNL1        0.0488
      2 C         139.3143  138.0571  165.4886 C.3     1  UNL1        0.0212
      3 C         138.2383  139.0909  165.6416 C.3     1  UNL1        0.0722
      4 C         138.7970  143.1968  163.8867 C.3     1  UNL1        0.1018
      5 C         137.9753  142.1751  163.1580 C.3     1  UNL1        0.0285
      6 C         137.7891  140.8065  163.7430 C.3     1  UNL1        0.0727
      7 N         138.4245  140.4595  165.0566 N.3     1  UNL1       -0.2727
      8 C         139.2462  141.4811  165.7853 C.3     1  UNL1        0.0727
      9 C         139.4325  142.8498  165.2004 C.3     1  UNL1        0.0285
     10 C         138.9832  144.5654  163.3017 C.2     1  UNL1        0.3165
     11 O         137.9872  145.1020  162.3169 O.2     1  UNL1       -0.2501
     12 O         140.1655  145.3974  163.7016 O.3     1  UNL1       -0.4485
     13 C         142.3364  144.0294  163.2945 C.3     1  UNL1        0.0513
     14 C         141.4781  145.2230  162.9969 C.3     1  UNL1        0.2086
     15 C         141.7797  137.7378  164.7335 C.3     1  UNL1        0.2054
     16 O         142.9066  138.7075  164.9328 O.3     1  UNL1       -0.4755
     17 C         142.8729  139.6705  166.0823 C.ar    1  UNL1        0.1386
     18 C         142.7396  139.1586  167.4860 C.ar    1  UNL1        0.0383
     19 C         142.7059  140.1216  168.6355 C.ar    1  UNL1        0.0230
     20 C         142.8056  141.5966  168.3814 C.ar    1  UNL1        0.1219
     21 C         142.9390  142.1085  166.9778 C.ar    1  UNL1        0.0230
     22 C         142.9726  141.1455  165.8282 C.ar    1  UNL1        0.0383
     23 S         142.7720  142.5596  169.5309 S.O2    1  UNL1        0.0572
     24 N         142.7384  143.5226  170.6805 N.3     1  UNL1       -0.2035
     25 O         144.2395  142.8174  169.3578 O.2     1  UNL1       -0.1532
     26 O         141.3046  142.3017  169.7040 O.2     1  UNL1       -0.1532
     27 H         143.6716  143.9062  170.8301 H       1  UNL1        0.1442
     28 H         142.4318  143.0360  171.5229 H       1  UNL1        0.1442
@<TRIPOS>BOND
     1    13    14    1
     2    14    12    1
     3    12    10    1
     4    10    11    2
     5    10     4    1
     6     4     5    1
     7     5     6    1
     8     6     7    1
     9     7     3    1
    10     3     2    1
    11     2     1    1
    12     1    15    1
    13    15    16    1
    14    16    17    1
    15    17    18   ar
    16    18    19   ar
    17    19    20   ar
    18    20    23    1
    19    23    24    1
    20    23    25    2
    21    23    26    2
    22    20    21   ar
    23    21    22   ar
    24     7     8    1
    25     8     9    1
    26     9     4    1
    27    22    17   ar
    28    24    27    1
    29    24    28    1
@<TRIPOS>MOLECULE
*****
 28 29 0 0 0
SMALL
GASTEIGER

@<TRIPOS>ATOM
      1 C         139.5752  138.0696  164.6285 C.3     1  UNL1        0.0488
      2 C         139.2872  137.6293  163.2238 C.3     1  UNL1        0.0212
      3 C         140.2038  138.0348  162.1079 C.3     1  UNL1        0.0722
      4 C         143.4873  141.0175  162.8644 C.3     1  UNL1        0.1018
      5 C         142.1191  141.4915  162.4731 C.3     1  UNL1        0.0285
      6 C         141.0246  140.4973  162.2210 C.3     1  UNL1        0.0727
      7 N         141.2983  139.0291  162.3601 N.3     1  UNL1       -0.2727
      8 C         142.6666  138.5551  162.7514 C.3     1  UNL1        0.0727
      9 C         143.7611  139.5493  163.0035 C.3     1  UNL1        0.0285
     10 C         144.5818  142.0117  163.1166 C.2     1  UNL1        0.3165
     11 O         146.0173  141.5880  163.0178 O.2     1  UNL1       -0.2501
     12 O         144.2408  143.4296  163.4675 O.3     1  UNL1       -0.4485
     13 C         143.9083  142.8752  165.9839 C.3     1  UNL1        0.0513
     14 C         144.2283  143.8648  164.9030 C.3     1  UNL1        0.2086
     15 C         138.4771  138.6418  165.4752 C.3     1  UNL1        0.2054
     16 O         138.6872  139.9379  166.2005 O.3     1  UNL1       -0.4755
     17 C         138.9321  141.1993  165.4265 C.ar    1  UNL1        0.1386
     18 C         140.0810  142.0920  165.7914 C.ar    1  UNL1        0.0383
     19 C         140.3258  143.3534  165.0175 C.ar    1  UNL1        0.0230
     20 C         139.4218  143.7221  163.8787 C.ar    1  UNL1        0.1219
     21 C         138.2729  142.8294  163.5138 C.ar    1  UNL1        0.0230
     22 C         138.0280  141.5679  164.2878 C.ar    1  UNL1        0.0383
     23 S         139.6666  144.9834  163.1048 S.O2    1  UNL1        0.0572
     24 N         139.9115  146.2448  162.3309 N.3     1  UNL1       -0.2035
     25 O         141.0255  145.1023  163.7285 O.2     1  UNL1       -0.1532
     26 O         138.3076  144.8645  162.4811 O.2     1  UNL1       -0.1532
     27 H         140.8382  146.6070  162.5553 H       1  UNL1        0.1442
     28 H         139.2061  146.9385  162.5792 H       1  UNL1        0.1442
@<TRIPOS>BOND
     1    13    14    1
     2    14    12    1
     3    12    10    1
     4    10    11    2
     5    10     4    1
     6     4     5    1
     7     5     6    1
     8     6     7    1
     9     7     3    1
    10     3     2    1
    11     2     1    1
    12     1    15    1
    13    15    16    1
    14    16    17    1
    15    17    18   ar
    16    18    19   ar
    17    19    20   ar
    18    20    23    1
    19    23    24    1
    20    23    25    2
    21    23    26    2
    22    20    21   ar
    23    21    22   ar
    24     7     8    1
    25     8     9    1
    26     9     4    1
    27    22    17   ar
    28    24    27    1
    29    24    28    1
@<TRIPOS>MOLECULE
*****
 28 29 0 0 0
SMALL
GASTEIGER

@<TRIPOS>ATOM
      1 C         139.0863  138.7016  163.6614 C.3     1  UNL1        0.0488
      2 C         139.6003  137.5437  164.4645 C.3     1  UNL1        0.0212
      3 C         141.0711  137.2522  164.5037 C.3     1  UNL1        0.0722
      4 C         144.0410  140.6220  164.2312 C.3     1  UNL1        0.1018
      5 C         143.8901  139.6611  163.0894 C.3     1  UNL1        0.0285
      6 C         142.9002  138.5378  163.1802 C.3     1  UNL1        0.0727
      7 N         142.0611  138.3754  164.4129 N.3     1  UNL1       -0.2727
      8 C         142.2120  139.3363  165.5547 C.3     1  UNL1        0.0727
      9 C         143.2019  140.4596  165.4639 C.3     1  UNL1        0.0285
     10 C         145.0309  141.7453  164.1404 C.2     1  UNL1        0.3165
     11 O         146.2257  141.6213  163.2420 O.2     1  UNL1       -0.2501
     12 O         144.8262  142.9926  164.9480 O.3     1  UNL1       -0.4485
     13 C         142.6569  144.0034  163.9368 C.3     1  UNL1        0.0513
     14 C         144.0890  144.1570  164.3558 C.3     1  UNL1        0.2086
     15 C         138.3049  138.4549  162.4050 C.3     1  UNL1        0.2054
     16 O         137.5334  139.5735  161.7697 O.3     1  UNL1       -0.4755
     17 C         138.0413  140.9819  161.8620 C.ar    1  UNL1        0.1386
     18 C         137.4311  141.9362  162.8454 C.ar    1  UNL1        0.0383
     19 C         137.9389  143.3446  162.9378 C.ar    1  UNL1        0.0230
     20 C         139.0569  143.7987  162.0467 C.ar    1  UNL1        0.1219
     21 C         139.6670  142.8444  161.0634 C.ar    1  UNL1        0.0230
     22 C         139.1592  141.4360  160.9710 C.ar    1  UNL1        0.0383
     23 S         139.5647  145.2071  162.1391 S.O2    1  UNL1        0.0572
     24 N         140.0726  146.6155  162.2314 N.3     1  UNL1       -0.2035
     25 O         139.7249  145.2471  160.6482 O.2     1  UNL1       -0.1532
     26 O         139.4046  145.1671  163.6299 O.2     1  UNL1       -0.1532
     27 H         140.2903  146.9604  161.2965 H       1  UNL1        0.1442
     28 H         140.9149  146.6362  162.8062 H       1  UNL1        0.1442
@<TRIPOS>BOND
     1    13    14    1
     2    14    12    1
     3    12    10    1
     4    10    11    2
     5    10     4    1
     6     4     5    1
     7     5     6    1
     8     6     7    1
     9     7     3    1
    10     3     2    1
    11     2     1    1
    12     1    15    1
    13    15    16    1
    14    16    17    1
    15    17    18   ar
    16    18    19   ar
    17    19    20   ar
    18    20    23    1
    19    23    24    1
    20    23    25    2
    21    23    26    2
    22    20    21   ar
    23    21    22   ar
    24     7     8    1
    25     8     9    1
    26     9     4    1
    27    22    17   ar
    28    24    27    1
    29    24    28    1
@<TRIPOS>MOLECULE
*****
 28 29 0 0 0
SMALL
GASTEIGER

@<TRIPOS>ATOM
      1 C         138.5670  144.2751  164.5192 C.3     1  UNL1        0.0488
      2 C         138.6239  144.8462  163.1334 C.3     1  UNL1        0.0212
      3 C         139.9457  145.2147  162.5277 C.3     1  UNL1        0.0722
      4 C         143.5546  142.6277  163.2575 C.3     1  UNL1        0.1018
      5 C         142.4033  142.0995  162.4542 C.3     1  UNL1        0.0285
      6 C         141.2003  142.9618  162.2110 C.3     1  UNL1        0.0727
      7 N         141.1487  144.3524  162.7710 N.3     1  UNL1       -0.2727
      8 C         142.3000  144.8806  163.5743 C.3     1  UNL1        0.0727
      9 C         143.5030  144.0182  163.8176 C.3     1  UNL1        0.0285
     10 C         144.7576  141.7653  163.5008 C.2     1  UNL1        0.3165
     11 O         145.9228  141.8201  162.5578 O.2     1  UNL1       -0.2501
     12 O         144.7954  140.8481  164.6871 O.3     1  UNL1       -0.4485
     13 C         143.0059  138.9887  164.9877 C.3     1  UNL1        0.0513
     14 C         144.3729  139.4162  164.5418 C.3     1  UNL1        0.2086
     15 C         138.1374  142.8531  164.7273 C.3     1  UNL1        0.2054
     16 O         139.1491  141.7474  164.6665 O.3     1  UNL1       -0.4755
     17 C         140.0003  141.4429  165.8634 C.ar    1  UNL1        0.1386
     18 C         141.3036  142.1595  166.0588 C.ar    1  UNL1        0.0383
     19 C         142.1548  141.8551  167.2557 C.ar    1  UNL1        0.0230
     20 C         141.7029  140.8341  168.2574 C.ar    1  UNL1        0.1219
     21 C         140.3997  140.1175  168.0621 C.ar    1  UNL1        0.0230
     22 C         139.5484  140.4219  166.8651 C.ar    1  UNL1        0.0383
     23 S         142.5541  140.5297  169.4543 S.O2    1  UNL1        0.0572
     24 N         143.4053  140.2252  170.6513 N.3     1  UNL1       -0.2035
     25 O         143.0294  139.2687  168.7955 O.2     1  UNL1       -0.1532
     26 O         142.0787  141.7906  170.1131 O.2     1  UNL1       -0.1532
     27 H         143.9030  139.3478  170.5002 H       1  UNL1        0.1442
     28 H         142.8130  140.1422  171.4775 H       1  UNL1        0.1442
@<TRIPOS>BOND
     1    13    14    1
     2    14    12    1
     3    12    10    1
     4    10    11    2
     5    10     4    1
     6     4     5    1
     7     5     6    1
     8     6     7    1
     9     7     3    1
    10     3     2    1
    11     2     1    1
    12     1    15    1
    13    15    16    1
    14    16    17    1
    15    17    18   ar
    16    18    19   ar
    17    19    20   ar
    18    20    23    1
    19    23    24    1
    20    23    25    2
    21    23    26    2
    22    20    21   ar
    23    21    22   ar
    24     7     8    1
    25     8     9    1
    26     9     4    1
    27    22    17   ar
    28    24    27    1
    29    24    28    1
