@<TRIPOS>MOLECULE
*****
 30 33 0 0 0
SMALL
GASTEIGER

@<TRIPOS>ATOM
      1 C         142.5436  142.5218  170.0411 C.ar    1  UNL1        0.1418
      2 C         141.4112  142.0982  170.9290 C.ar    1  UNL1        0.0384
      3 C         140.3141  141.2327  170.3838 C.ar    1  UNL1        0.0246
      4 C         140.3493  140.7908  168.9509 C.ar    1  UNL1        0.1397
      5 C         141.4816  141.2144  168.0630 C.ar    1  UNL1        0.1589
      6 C         142.5788  142.0799  168.6082 C.ar    1  UNL1        0.0751
      7 O         141.5169  140.7725  166.6300 O.3     1  UNL1       -0.4716
      8 C         140.4197  139.9070  166.0849 C.3     1  UNL1        0.2102
      9 C         139.2873  139.4834  166.9728 C.3     1  UNL1        0.1779
     10 C         138.1901  138.6179  166.4277 C.3     1  UNL1        0.0300
     11 S         139.2521  139.9253  168.4058 S.O2    1  UNL1        0.0137
     12 O         138.7788  140.0860  169.8200 O.2     1  UNL1       -0.1685
     13 O         137.9906  139.1156  168.3518 O.2     1  UNL1       -0.1685
     14 C         140.4549  139.4651  164.6519 C.ar    1  UNL1        0.0191
     15 C         140.8822  138.0689  164.3078 C.ar    1  UNL1        0.0023
     16 C         140.9174  137.6270  162.8749 C.ar    1  UNL1        0.0367
     17 C         140.5253  138.5812  161.7859 C.ar    1  UNL1        0.1385
     18 C         140.0980  139.9772  162.1299 C.ar    1  UNL1        0.0367
     19 C         140.0628  140.4192  163.5629 C.ar    1  UNL1        0.0023
     20 O         140.5605  138.1393  160.3530 O.3     1  UNL1       -0.4754
     21 C         141.7591  138.4428  159.5037 C.3     1  UNL1        0.2068
     22 C         143.1394  138.2538  160.0595 C.3     1  UNL1        0.0646
     23 C         143.9544  139.4460  160.4650 C.3     1  UNL1        0.0759
     24 N         143.9360  139.9179  161.8888 N.3     1  UNL1       -0.2726
     25 C         144.2582  139.0889  163.0967 C.3     1  UNL1        0.0721
     26 C         144.1136  139.9602  164.3090 C.3     1  UNL1        0.0188
     27 C         143.7019  141.3278  163.8504 C.3     1  UNL1        0.0188
     28 C         143.5922  141.3016  162.3546 C.3     1  UNL1        0.0721
     29 C         145.0691  143.1024  170.2276 C.3     1  UNL1        0.2525
     30 O         143.6407  143.3873  170.5863 O.3     1  UNL1       -0.4713
@<TRIPOS>BOND
     1    29    30    1
     2    30     1    1
     3     1     2   ar
     4     2     3   ar
     5     3     4   ar
     6     4     5   ar
     7     5     6   ar
     8     5     7    1
     9     7     8    1
    10     8    14    1
    11    14    15   ar
    12    15    16   ar
    13    16    17   ar
    14    17    20    1
    15    20    21    1
    16    21    22    1
    17    22    23    1
    18    23    24    1
    19    24    25    1
    20    25    26    1
    21    26    27    1
    22    27    28    1
    23    17    18   ar
    24    18    19   ar
    25     8     9    1
    26     9    10    1
    27     9    11    1
    28    11    12    2
    29    11    13    2
    30     6     1   ar
    31    19    14   ar
    32    11     4    1
    33    28    24    1
@<TRIPOS>MOLECULE
*****
 30 33 0 0 0
SMALL
GASTEIGER

@<TRIPOS>ATOM
      1 C         140.9029  141.0463  169.9641 C.ar    1  UNL1        0.1418
      2 C         141.6851  139.7752  170.1130 C.ar    1  UNL1        0.0384
      3 C         142.4502  139.2243  168.9464 C.ar    1  UNL1        0.0246
      4 C         142.4331  139.9446  167.6308 C.ar    1  UNL1        0.1397
      5 C         141.6509  141.2158  167.4819 C.ar    1  UNL1        0.1589
      6 C         140.8858  141.7667  168.6486 C.ar    1  UNL1        0.0751
      7 O         141.6338  141.9362  166.1663 O.3     1  UNL1       -0.4716
      8 C         142.3990  141.3854  164.9996 C.3     1  UNL1        0.2102
      9 C         143.1812  140.1141  165.1485 C.3     1  UNL1        0.1779
     10 C         143.9463  139.5632  163.9819 C.3     1  UNL1        0.0300
     11 S         143.1983  139.3938  166.4641 S.O2    1  UNL1        0.0137
     12 O         143.5198  138.3571  167.4994 O.2     1  UNL1       -0.1685
     13 O         144.0750  138.4829  165.6570 O.2     1  UNL1       -0.1685
     14 C         142.3819  142.1057  163.6840 C.ar    1  UNL1        0.0191
     15 C         143.3493  143.2233  163.4282 C.ar    1  UNL1        0.0023
     16 C         143.3322  143.9436  162.1126 C.ar    1  UNL1        0.0367
     17 C         142.3478  143.5464  161.0528 C.ar    1  UNL1        0.1385
     18 C         141.3805  142.4289  161.3085 C.ar    1  UNL1        0.0367
     19 C         141.3976  141.7085  162.6242 C.ar    1  UNL1        0.0023
     20 O         142.3308  144.2668  159.7372 O.3     1  UNL1       -0.4754
     21 C         141.3309  145.3579  159.4925 C.3     1  UNL1        0.2068
     22 C         140.0434  145.3816  160.2616 C.3     1  UNL1        0.0646
     23 C         139.9968  146.0006  161.6271 C.3     1  UNL1        0.0759
     24 N         139.4601  145.2167  162.7880 N.3     1  UNL1       -0.2726
     25 C         138.1303  144.5250  162.8455 C.3     1  UNL1        0.0721
     26 C         138.0074  143.8677  164.1881 C.3     1  UNL1        0.0188
     27 C         139.2613  144.1530  164.9604 C.3     1  UNL1        0.0188
     28 C         140.1591  144.9867  164.0951 C.3     1  UNL1        0.0721
     29 C         139.4795  142.9412  171.0289 C.3     1  UNL1        0.2525
     30 O         140.1377  141.5972  171.1308 O.3     1  UNL1       -0.4713
@<TRIPOS>BOND
     1    29    30    1
     2    30     1    1
     3     1     2   ar
     4     2     3   ar
     5     3     4   ar
     6     4     5   ar
     7     5     6   ar
     8     5     7    1
     9     7     8    1
    10     8    14    1
    11    14    15   ar
    12    15    16   ar
    13    16    17   ar
    14    17    20    1
    15    20    21    1
    16    21    22    1
    17    22    23    1
    18    23    24    1
    19    24    25    1
    20    25    26    1
    21    26    27    1
    22    27    28    1
    23    17    18   ar
    24    18    19   ar
    25     8     9    1
    26     9    10    1
    27     9    11    1
    28    11    12    2
    29    11    13    2
    30     6     1   ar
    31    19    14   ar
    32    11     4    1
    33    28    24    1
@<TRIPOS>MOLECULE
*****
 30 33 0 0 0
SMALL
GASTEIGER

@<TRIPOS>ATOM
      1 C         141.1128  142.0152  169.9199 C.ar    1  UNL1        0.1418
      2 C         139.9252  141.2000  170.3385 C.ar    1  UNL1        0.0384
      3 C         139.2329  140.3172  169.3428 C.ar    1  UNL1        0.0246
      4 C         139.7282  140.2496  167.9286 C.ar    1  UNL1        0.1397
      5 C         140.9157  141.0647  167.5100 C.ar    1  UNL1        0.1589
      6 C         141.6080  141.9475  168.5057 C.ar    1  UNL1        0.0751
      7 O         141.4110  140.9971  166.0957 O.3     1  UNL1       -0.4716
      8 C         140.7187  140.1143  165.1000 C.3     1  UNL1        0.2102
      9 C         139.5311  139.2991  165.5187 C.3     1  UNL1        0.1779
     10 C         138.8388  138.4163  164.5230 C.3     1  UNL1        0.0300
     11 S         139.0359  139.3668  166.9329 S.O2    1  UNL1        0.0137
     12 O         138.1993  139.0951  168.1479 O.2     1  UNL1       -0.1685
     13 O         138.0531  138.3896  166.3592 O.2     1  UNL1       -0.1685
     14 C         141.2139  140.0466  163.6858 C.ar    1  UNL1        0.0191
     15 C         140.5828  140.9031  162.6283 C.ar    1  UNL1        0.0023
     16 C         141.0780  140.8354  161.2141 C.ar    1  UNL1        0.0367
     17 C         142.2044  139.9113  160.8572 C.ar    1  UNL1        0.1385
     18 C         142.8356  139.0549  161.9146 C.ar    1  UNL1        0.0367
     19 C         142.3403  139.1225  163.3290 C.ar    1  UNL1        0.0023
     20 O         142.6997  139.8437  159.4430 O.3     1  UNL1       -0.4754
     21 C         143.8397  140.7147  159.0050 C.3     1  UNL1        0.2068
     22 C         143.9034  142.1460  159.4490 C.3     1  UNL1        0.0646
     23 C         144.9366  142.5761  160.4477 C.3     1  UNL1        0.0759
     24 N         144.6424  142.4889  161.9161 N.3     1  UNL1       -0.2726
     25 C         145.3585  141.6220  162.9088 C.3     1  UNL1        0.0721
     26 C         144.7392  141.8506  164.2557 C.3     1  UNL1        0.0188
     27 C         143.6402  142.8589  164.0954 C.3     1  UNL1        0.0188
     28 C         143.5804  143.2534  162.6494 C.3     1  UNL1        0.0721
     29 C         143.2367  143.2910  170.7016 C.3     1  UNL1        0.2525
     30 O         141.8051  142.8980  170.9156 O.3     1  UNL1       -0.4713
@<TRIPOS>BOND
     1    29    30    1
     2    30     1    1
     3     1     2   ar
     4     2     3   ar
     5     3     4   ar
     6     4     5   ar
     7     5     6   ar
     8     5     7    1
     9     7     8    1
    10     8    14    1
    11    14    15   ar
    12    15    16   ar
    13    16    17   ar
    14    17    20    1
    15    20    21    1
    16    21    22    1
    17    22    23    1
    18    23    24    1
    19    24    25    1
    20    25    26    1
    21    26    27    1
    22    27    28    1
    23    17    18   ar
    24    18    19   ar
    25     8     9    1
    26     9    10    1
    27     9    11    1
    28    11    12    2
    29    11    13    2
    30     6     1   ar
    31    19    14   ar
    32    11     4    1
    33    28    24    1
@<TRIPOS>MOLECULE
*****
 30 33 0 0 0
SMALL
GASTEIGER

@<TRIPOS>ATOM
      1 C         142.6463  142.5787  169.9854 C.ar    1  UNL1        0.1418
      2 C         141.4922  142.1008  170.8158 C.ar    1  UNL1        0.0384
      3 C         140.4372  141.2286  170.2023 C.ar    1  UNL1        0.0246
      4 C         140.5364  140.8343  168.7585 C.ar    1  UNL1        0.1397
      5 C         141.6905  141.3121  167.9282 C.ar    1  UNL1        0.1589
      6 C         142.7455  142.1843  168.5416 C.ar    1  UNL1        0.0751
      7 O         141.7897  140.9178  166.4843 O.3     1  UNL1       -0.4716
      8 C         140.7348  140.0456  165.8708 C.3     1  UNL1        0.2102
      9 C         139.5806  139.5677  166.7013 C.3     1  UNL1        0.1779
     10 C         138.5256  138.6955  166.0879 C.3     1  UNL1        0.0300
     11 S         139.4814  139.9620  168.1451 S.O2    1  UNL1        0.0137
     12 O         138.9520  140.0660  169.5447 O.2     1  UNL1       -0.1685
     13 O         138.2426  139.1259  168.0177 O.2     1  UNL1       -0.1685
     14 C         140.8339  139.6512  164.4270 C.ar    1  UNL1        0.0191
     15 C         141.1744  140.6803  163.3901 C.ar    1  UNL1        0.0023
     16 C         141.2736  140.2860  161.9463 C.ar    1  UNL1        0.0367
     17 C         141.0323  138.8625  161.5393 C.ar    1  UNL1        0.1385
     18 C         140.6918  137.8335  162.5762 C.ar    1  UNL1        0.0367
     19 C         140.5926  138.2278  164.0201 C.ar    1  UNL1        0.0023
     20 O         141.1315  138.4682  160.0956 O.3     1  UNL1       -0.4754
     21 C         139.9306  138.5791  159.2035 C.3     1  UNL1        0.2068
     22 C         139.4285  139.9296  158.7862 C.3     1  UNL1        0.0646
     23 C         138.0999  140.4210  159.2794 C.3     1  UNL1        0.0759
     24 N         137.9461  140.8652  160.7039 N.3     1  UNL1       -0.2726
     25 C         137.5753  139.9908  161.8649 C.3     1  UNL1        0.0721
     26 C         137.5362  140.8469  163.0960 C.3     1  UNL1        0.0188
     27 C         137.8829  142.2504  162.6957 C.3     1  UNL1        0.0188
     28 C         138.1362  142.2617  161.2173 C.3     1  UNL1        0.0721
     29 C         145.1506  143.1849  170.3185 C.3     1  UNL1        0.2525
     30 O         143.7013  143.4509  170.5988 O.3     1  UNL1       -0.4713
@<TRIPOS>BOND
     1    29    30    1
     2    30     1    1
     3     1     2   ar
     4     2     3   ar
     5     3     4   ar
     6     4     5   ar
     7     5     6   ar
     8     5     7    1
     9     7     8    1
    10     8    14    1
    11    14    15   ar
    12    15    16   ar
    13    16    17   ar
    14    17    20    1
    15    20    21    1
    16    21    22    1
    17    22    23    1
    18    23    24    1
    19    24    25    1
    20    25    26    1
    21    26    27    1
    22    27    28    1
    23    17    18   ar
    24    18    19   ar
    25     8     9    1
    26     9    10    1
    27     9    11    1
    28    11    12    2
    29    11    13    2
    30     6     1   ar
    31    19    14   ar
    32    11     4    1
    33    28    24    1
@<TRIPOS>MOLECULE
*****
 30 33 0 0 0
SMALL
GASTEIGER

@<TRIPOS>ATOM
      1 C         142.4272  142.7175  170.1806 C.ar    1  UNL1        0.1418
      2 C         141.6068  141.7248  170.9497 C.ar    1  UNL1        0.0384
      3 C         140.6160  140.8556  170.2337 C.ar    1  UNL1        0.0246
      4 C         140.4455  140.9791  168.7485 C.ar    1  UNL1        0.1397
      5 C         141.2658  141.9718  167.9795 C.ar    1  UNL1        0.1589
      6 C         142.2567  142.8410  168.6955 C.ar    1  UNL1        0.0751
      7 O         141.0953  142.0954  166.4943 O.3     1  UNL1       -0.4716
      8 C         140.1045  141.2262  165.7782 C.3     1  UNL1        0.2102
      9 C         139.2841  140.2334  166.5474 C.3     1  UNL1        0.1779
     10 C         138.2932  139.3642  165.8314 C.3     1  UNL1        0.0300
     11 S         139.4546  140.1099  168.0325 S.O2    1  UNL1        0.0137
     12 O         139.2572  139.6262  169.4386 O.2     1  UNL1       -0.1685
     13 O         138.3952  139.0728  167.8048 O.2     1  UNL1       -0.1685
     14 C         139.9339  141.3497  164.2931 C.ar    1  UNL1        0.0191
     15 C         138.8915  142.2708  163.7319 C.ar    1  UNL1        0.0023
     16 C         138.7210  142.3943  162.2467 C.ar    1  UNL1        0.0367
     17 C         139.5929  141.5967  161.3228 C.ar    1  UNL1        0.1385
     18 C         140.6353  140.6756  161.8840 C.ar    1  UNL1        0.0367
     19 C         140.8058  140.5521  163.3692 C.ar    1  UNL1        0.0023
     20 O         139.4224  141.7202  159.8377 O.3     1  UNL1       -0.4754
     21 C         139.1969  143.0676  159.2181 C.3     1  UNL1        0.2068
     22 C         140.3611  143.9754  158.9530 C.3     1  UNL1        0.0646
     23 C         140.6131  145.1526  159.8478 C.3     1  UNL1        0.0759
     24 N         141.1260  144.9394  161.2412 N.3     1  UNL1       -0.2726
     25 C         142.2876  144.0737  161.6302 C.3     1  UNL1        0.0721
     26 C         142.4470  144.1537  163.1196 C.3     1  UNL1        0.0188
     27 C         141.3838  145.0689  163.6510 C.3     1  UNL1        0.0188
     28 C         140.5675  145.5544  162.4901 C.3     1  UNL1        0.0721
     29 C         144.8824  143.4569  170.5990 C.3     1  UNL1        0.2525
     30 O         143.4180  143.5867  170.8966 O.3     1  UNL1       -0.4713
@<TRIPOS>BOND
     1    29    30    1
     2    30     1    1
     3     1     2   ar
     4     2     3   ar
     5     3     4   ar
     6     4     5   ar
     7     5     6   ar
     8     5     7    1
     9     7     8    1
    10     8    14    1
    11    14    15   ar
    12    15    16   ar
    13    16    17   ar
    14    17    20    1
    15    20    21    1
    16    21    22    1
    17    22    23    1
    18    23    24    1
    19    24    25    1
    20    25    26    1
    21    26    27    1
    22    27    28    1
    23    17    18   ar
    24    18    19   ar
    25     8     9    1
    26     9    10    1
    27     9    11    1
    28    11    12    2
    29    11    13    2
    30     6     1   ar
    31    19    14   ar
    32    11     4    1
    33    28    24    1
@<TRIPOS>MOLECULE
*****
 30 33 0 0 0
SMALL
GASTEIGER

@<TRIPOS>ATOM
      1 C         139.8297  140.1821  170.2476 C.ar    1  UNL1        0.1418
      2 C         140.8976  141.0031  170.9075 C.ar    1  UNL1        0.0384
      3 C         141.9369  141.6919  170.0735 C.ar    1  UNL1        0.0246
      4 C         141.9082  141.5596  168.5796 C.ar    1  UNL1        0.1397
      5 C         140.8403  140.7386  167.9198 C.ar    1  UNL1        0.1589
      6 C         139.8011  140.0499  168.7538 C.ar    1  UNL1        0.0751
      7 O         140.8116  140.6063  166.4258 O.3     1  UNL1       -0.4716
      8 C         141.8509  141.2951  165.5918 C.3     1  UNL1        0.2102
      9 C         142.9188  142.1161  166.2518 C.3     1  UNL1        0.1779
     10 C         143.9581  142.8049  165.4177 C.3     1  UNL1        0.0300
     11 S         142.9475  142.2484  167.7456 S.O2    1  UNL1        0.0137
     12 O         143.3905  142.6708  169.1150 O.2     1  UNL1       -0.1685
     13 O         144.1406  143.0838  167.3872 O.2     1  UNL1       -0.1685
     14 C         141.8222  141.1628  164.0980 C.ar    1  UNL1        0.0191
     15 C         140.7059  141.7835  163.3113 C.ar    1  UNL1        0.0023
     16 C         140.6772  141.6512  161.8175 C.ar    1  UNL1        0.0367
     17 C         141.7648  140.8984  161.1102 C.ar    1  UNL1        0.1385
     18 C         142.8811  140.2777  161.8967 C.ar    1  UNL1        0.0367
     19 C         142.9098  140.4100  163.3907 C.ar    1  UNL1        0.0023
     20 O         141.7361  140.7661  159.6163 O.3     1  UNL1       -0.4754
     21 C         140.8547  139.7380  158.9712 C.3     1  UNL1        0.2068
     22 C         140.5782  138.4410  159.6720 C.3     1  UNL1        0.0646
     23 C         139.4261  138.3352  160.6267 C.3     1  UNL1        0.0759
     24 N         139.6803  138.0919  162.0849 N.3     1  UNL1       -0.2726
     25 C         140.8850  137.4156  162.6690 C.3     1  UNL1        0.0721
     26 C         140.7237  137.3879  164.1601 C.3     1  UNL1        0.0188
     27 C         139.4192  138.0472  164.4975 C.3     1  UNL1        0.0188
     28 C         138.7744  138.4823  163.2149 C.3     1  UNL1        0.0721
     29 C         137.3565  139.4909  170.6416 C.3     1  UNL1        0.2525
     30 O         138.7905  139.4933  171.0816 O.3     1  UNL1       -0.4713
@<TRIPOS>BOND
     1    29    30    1
     2    30     1    1
     3     1     2   ar
     4     2     3   ar
     5     3     4   ar
     6     4     5   ar
     7     5     6   ar
     8     5     7    1
     9     7     8    1
    10     8    14    1
    11    14    15   ar
    12    15    16   ar
    13    16    17   ar
    14    17    20    1
    15    20    21    1
    16    21    22    1
    17    22    23    1
    18    23    24    1
    19    24    25    1
    20    25    26    1
    21    26    27    1
    22    27    28    1
    23    17    18   ar
    24    18    19   ar
    25     8     9    1
    26     9    10    1
    27     9    11    1
    28    11    12    2
    29    11    13    2
    30     6     1   ar
    31    19    14   ar
    32    11     4    1
    33    28    24    1
@<TRIPOS>MOLECULE
*****
 30 33 0 0 0
SMALL
GASTEIGER

@<TRIPOS>ATOM
      1 C         141.1913  141.5567  169.8760 C.ar    1  UNL1        0.1418
      2 C         139.8609  140.9140  170.1344 C.ar    1  UNL1        0.0384
      3 C         139.1900  140.1182  169.0543 C.ar    1  UNL1        0.0246
      4 C         139.8495  139.9651  167.7158 C.ar    1  UNL1        0.1397
      5 C         141.1799  140.6078  167.4574 C.ar    1  UNL1        0.1589
      6 C         141.8508  141.4037  168.5375 C.ar    1  UNL1        0.0751
      7 O         141.8394  140.4548  166.1189 O.3     1  UNL1       -0.4716
      8 C         141.1685  139.6590  165.0388 C.3     1  UNL1        0.2102
      9 C         139.8380  139.0162  165.2973 C.3     1  UNL1        0.1779
     10 C         139.1671  138.2204  164.2173 C.3     1  UNL1        0.0300
     11 S         139.1785  139.1693  166.6358 S.O2    1  UNL1        0.0137
     12 O         138.1636  139.0291  167.7314 O.2     1  UNL1       -0.1685
     13 O         138.1551  138.3248  165.9362 O.2     1  UNL1       -0.1685
     14 C         141.8280  139.5059  163.7003 C.ar    1  UNL1        0.0191
     15 C         141.4689  140.4328  162.5769 C.ar    1  UNL1        0.0023
     16 C         142.1284  140.2797  161.2384 C.ar    1  UNL1        0.0367
     17 C         143.1469  139.1998  161.0232 C.ar    1  UNL1        0.1385
     18 C         143.5059  138.2728  162.1465 C.ar    1  UNL1        0.0367
     19 C         142.8464  138.4259  163.4851 C.ar    1  UNL1        0.0023
     20 O         143.8064  139.0467  159.6847 O.3     1  UNL1       -0.4754
     21 C         142.9799  138.7323  158.4730 C.3     1  UNL1        0.2068
     22 C         142.5820  137.3154  158.1835 C.3     1  UNL1        0.0646
     23 C         142.9219  136.6963  156.8603 C.3     1  UNL1        0.0759
     24 N         142.7662  135.2176  156.6619 N.3     1  UNL1       -0.2726
     25 C         141.9408  134.5526  155.6005 C.3     1  UNL1        0.0721
     26 C         142.0729  133.0684  155.7726 C.3     1  UNL1        0.0188
     27 C         142.9800  132.8161  156.9404 C.3     1  UNL1        0.0188
     28 C         143.4084  134.1444  157.4900 C.3     1  UNL1        0.0721
     29 C         142.9757  143.2964  170.6105 C.3     1  UNL1        0.2525
     30 O         141.8623  142.3525  170.9560 O.3     1  UNL1       -0.4713
@<TRIPOS>BOND
     1    29    30    1
     2    30     1    1
     3     1     2   ar
     4     2     3   ar
     5     3     4   ar
     6     4     5   ar
     7     5     6   ar
     8     5     7    1
     9     7     8    1
    10     8    14    1
    11    14    15   ar
    12    15    16   ar
    13    16    17   ar
    14    17    20    1
    15    20    21    1
    16    21    22    1
    17    22    23    1
    18    23    24    1
    19    24    25    1
    20    25    26    1
    21    26    27    1
    22    27    28    1
    23    17    18   ar
    24    18    19   ar
    25     8     9    1
    26     9    10    1
    27     9    11    1
    28    11    12    2
    29    11    13    2
    30     6     1   ar
    31    19    14   ar
    32    11     4    1
    33    28    24    1
@<TRIPOS>MOLECULE
*****
 30 33 0 0 0
SMALL
GASTEIGER

@<TRIPOS>ATOM
      1 C         140.6847  142.2797  168.3584 C.ar    1  UNL1        0.1418
      2 C         140.1147  140.9638  168.7983 C.ar    1  UNL1        0.0384
      3 C         139.5555  140.0117  167.7830 C.ar    1  UNL1        0.0246
      4 C         139.5662  140.3756  166.3278 C.ar    1  UNL1        0.1397
      5 C         140.1362  141.6915  165.8880 C.ar    1  UNL1        0.1589
      6 C         140.6954  142.6436  166.9033 C.ar    1  UNL1        0.0751
      7 O         140.1469  142.0554  164.4328 O.3     1  UNL1       -0.4716
      8 C         139.5877  141.1033  163.4175 C.3     1  UNL1        0.2102
      9 C         139.0177  139.7874  163.8574 C.3     1  UNL1        0.1779
     10 C         138.4585  138.8353  162.8421 C.3     1  UNL1        0.0300
     11 S         139.0070  139.4235  165.3125 S.O2    1  UNL1        0.0137
     12 O         138.7740  138.6338  166.5663 O.2     1  UNL1       -0.1685
     13 O         138.3669  138.1972  164.7327 O.2     1  UNL1       -0.1685
     14 C         139.5984  141.4672  161.9624 C.ar    1  UNL1        0.0191
     15 C         140.7779  141.1079  161.1081 C.ar    1  UNL1        0.0023
     16 C         140.7887  141.4718  159.6529 C.ar    1  UNL1        0.0367
     17 C         139.6199  142.1949  159.0520 C.ar    1  UNL1        0.1385
     18 C         138.4404  142.5541  159.9062 C.ar    1  UNL1        0.0367
     19 C         138.4297  142.1903  161.3614 C.ar    1  UNL1        0.0023
     20 O         139.6306  142.5587  157.5969 O.3     1  UNL1       -0.4754
     21 C         140.2923  143.8271  157.1458 C.3     1  UNL1        0.2068
     22 C         140.2753  145.0378  158.0310 C.3     1  UNL1        0.0646
     23 C         141.3980  145.2768  158.9965 C.3     1  UNL1        0.0759
     24 N         141.1494  145.1872  160.4731 N.3     1  UNL1       -0.2726
     25 C         139.9670  145.7509  161.2039 C.3     1  UNL1        0.0721
     26 C         140.1263  145.4302  162.6605 C.3     1  UNL1        0.0188
     27 C         141.4073  144.6682  162.8299 C.3     1  UNL1        0.0188
     28 C         142.0395  144.5180  161.4780 C.3     1  UNL1        0.0721
     29 C         140.3455  144.2325  170.0382 C.3     1  UNL1        0.2525
     30 O         141.2439  143.2318  169.3737 O.3     1  UNL1       -0.4713
@<TRIPOS>BOND
     1    29    30    1
     2    30     1    1
     3     1     2   ar
     4     2     3   ar
     5     3     4   ar
     6     4     5   ar
     7     5     6   ar
     8     5     7    1
     9     7     8    1
    10     8    14    1
    11    14    15   ar
    12    15    16   ar
    13    16    17   ar
    14    17    20    1
    15    20    21    1
    16    21    22    1
    17    22    23    1
    18    23    24    1
    19    24    25    1
    20    25    26    1
    21    26    27    1
    22    27    28    1
    23    17    18   ar
    24    18    19   ar
    25     8     9    1
    26     9    10    1
    27     9    11    1
    28    11    12    2
    29    11    13    2
    30     6     1   ar
    31    19    14   ar
    32    11     4    1
    33    28    24    1
@<TRIPOS>MOLECULE
*****
 30 33 0 0 0
SMALL
GASTEIGER

@<TRIPOS>ATOM
      1 C         142.4998  144.0444  157.3300 C.ar    1  UNL1        0.1418
      2 C         141.4688  145.1283  157.2200 C.ar    1  UNL1        0.0384
      3 C         140.7058  145.5639  158.4357 C.ar    1  UNL1        0.0246
      4 C         140.9739  144.9158  159.7616 C.ar    1  UNL1        0.1397
      5 C         142.0050  143.8319  159.8717 C.ar    1  UNL1        0.1589
      6 C         142.7679  143.3962  158.6559 C.ar    1  UNL1        0.0751
      7 O         142.2731  143.1836  161.1976 O.3     1  UNL1       -0.4716
      8 C         141.5102  143.6193  162.4134 C.3     1  UNL1        0.2102
      9 C         140.4791  144.7032  162.3032 C.3     1  UNL1        0.1779
     10 C         139.7162  145.1389  163.5190 C.3     1  UNL1        0.0300
     11 S         140.2110  145.3514  160.9774 S.O2    1  UNL1        0.0137
     12 O         139.6048  146.2606  159.9498 O.2     1  UNL1       -0.1685
     13 O         139.2376  146.1028  161.8363 O.2     1  UNL1       -0.1685
     14 C         141.7783  142.9711  163.7392 C.ar    1  UNL1        0.0191
     15 C         143.0426  143.2822  164.4842 C.ar    1  UNL1        0.0023
     16 C         143.3107  142.6340  165.8100 C.ar    1  UNL1        0.0367
     17 C         142.3145  141.6748  166.3910 C.ar    1  UNL1        0.1385
     18 C         141.0503  141.3637  165.6461 C.ar    1  UNL1        0.0367
     19 C         140.7822  142.0119  164.3202 C.ar    1  UNL1        0.0023
     20 O         142.5826  141.0266  167.7168 O.3     1  UNL1       -0.4754
     21 C         142.4425  139.5407  167.8673 C.3     1  UNL1        0.2068
     22 C         143.4006  138.6224  167.1682 C.3     1  UNL1        0.0646
     23 C         143.0752  138.0991  165.8006 C.3     1  UNL1        0.0759
     24 N         143.4842  138.8750  164.5837 N.3     1  UNL1       -0.2726
     25 C         144.7599  139.6463  164.4174 C.3     1  UNL1        0.0721
     26 C         144.7534  140.2638  163.0504 C.3     1  UNL1        0.0188
     27 C         143.4737  139.8740  162.3719 C.3     1  UNL1        0.0188
     28 C         142.6893  139.0157  163.3195 C.3     1  UNL1        0.0721
     29 C         144.2412  142.4758  156.2089 C.3     1  UNL1        0.2525
     30 O         143.2627  143.6087  156.1143 O.3     1  UNL1       -0.4713
@<TRIPOS>BOND
     1    29    30    1
     2    30     1    1
     3     1     2   ar
     4     2     3   ar
     5     3     4   ar
     6     4     5   ar
     7     5     6   ar
     8     5     7    1
     9     7     8    1
    10     8    14    1
    11    14    15   ar
    12    15    16   ar
    13    16    17   ar
    14    17    20    1
    15    20    21    1
    16    21    22    1
    17    22    23    1
    18    23    24    1
    19    24    25    1
    20    25    26    1
    21    26    27    1
    22    27    28    1
    23    17    18   ar
    24    18    19   ar
    25     8     9    1
    26     9    10    1
    27     9    11    1
    28    11    12    2
    29    11    13    2
    30     6     1   ar
    31    19    14   ar
    32    11     4    1
    33    28    24    1
