@<TRIPOS>MOLECULE
*****
 26 28 0 0 0
SMALL
GASTEIGER

@<TRIPOS>ATOM
      1 N         138.7694  141.3211  162.9226 N.am    1  UNL1       -0.2413
      2 C         138.2227  141.4980  161.5369 C.3     1  UNL1        0.1212
      3 C         138.2541  142.9615  161.2096 C.3     1  UNL1        0.1169
      4 N         138.8201  143.6891  162.3930 N.am    1  UNL1       -0.2606
      5 C         139.1386  142.6752  163.4516 C.2     1  UNL1        0.3111
      6 O         139.7235  142.9648  164.8021 O.2     1  UNL1       -0.2520
      7 C         138.3419  138.4902  165.6710 C.ar    1  UNL1        0.0697
      8 C         139.2221  137.4138  165.1085 C.ar    1  UNL1        0.0104
      9 C         139.9514  137.6397  163.8173 C.ar    1  UNL1        0.0020
     10 C         139.8005  138.9421  163.0887 C.ar    1  UNL1        0.0150
     11 C         138.9203  140.0186  163.6512 C.ar    1  UNL1        0.0560
     12 C         138.1910  139.7926  164.9423 C.ar    1  UNL1        0.0252
     13 N         136.8832  138.0383  168.2532 N.1     1  UNL1       -0.1908
     14 C         137.6125  138.2643  166.9621 C.1     1  UNL1        0.1005
     15 C         139.0307  145.1704  162.4990 C.3     1  UNL1        0.1123
     16 C         140.3953  145.7518  162.2762 C.3     1  UNL1        0.0939
     17 N         141.6165  144.9211  162.5385 N.3     1  UNL1       -0.2712
     18 C         142.2952  144.9864  163.8745 C.3     1  UNL1        0.0724
     19 C         143.5163  144.1558  164.1368 C.3     1  UNL1        0.0258
     20 C         144.0587  143.2598  163.0631 C.3     1  UNL1        0.0979
     21 C         143.3800  143.1945  161.7270 C.3     1  UNL1        0.0258
     22 C         142.1588  144.0252  161.4647 C.3     1  UNL1        0.0724
     23 C         145.2798  142.4291  163.3254 C.3     1  UNL1        0.3976
     24 F         146.5010  141.5984  163.5877 F       1  UNL1       -0.1701
     25 F         145.2658  142.8619  164.7616 F       1  UNL1       -0.1701
     26 F         145.2939  141.9963  161.8892 F       1  UNL1       -0.1701
@<TRIPOS>BOND
     1    13    14    3
     2    14     7    1
     3     7     8   ar
     4     8     9   ar
     5     9    10   ar
     6    10    11   ar
     7    11     1    1
     8     1     2    1
     9     2     3    1
    10     3     4    1
    11     4    15    1
    12    15    16    1
    13    16    17    1
    14    17    18    1
    15    18    19    1
    16    19    20    1
    17    20    23    1
    18    23    24    1
    19    23    25    1
    20    23    26    1
    21    20    21    1
    22    21    22    1
    23     4     5   am
    24     5     6    2
    25    11    12   ar
    26    12     7   ar
    27     5     1   am
    28    22    17    1
@<TRIPOS>MOLECULE
*****
 26 28 0 0 0
SMALL
GASTEIGER

@<TRIPOS>ATOM
      1 N         142.4881  139.7976  165.6556 N.am    1  UNL1       -0.2413
      2 C         142.9153  138.6507  164.7884 C.3     1  UNL1        0.1212
      3 C         144.1301  139.0784  164.0195 C.3     1  UNL1        0.1169
      4 N         144.4537  140.4897  164.4115 N.am    1  UNL1       -0.2606
      5 C         143.4388  140.9342  165.4227 C.2     1  UNL1        0.3111
      6 O         143.3843  142.2791  166.0847 O.2     1  UNL1       -0.2520
      7 C         140.3295  140.2249  168.9584 C.ar    1  UNL1        0.0697
      8 C         138.9715  139.8239  168.4633 C.ar    1  UNL1        0.0104
      9 C         138.7857  139.4142  167.0324 C.ar    1  UNL1        0.0020
     10 C         139.9579  139.4054  166.0965 C.ar    1  UNL1        0.0150
     11 C         141.3158  139.8064  166.5915 C.ar    1  UNL1        0.0560
     12 C         141.5016  140.2161  168.0225 C.ar    1  UNL1        0.0252
     13 N         140.7011  141.0443  171.8203 N.1     1  UNL1       -0.1908
     14 C         140.5153  140.6346  170.3893 C.1     1  UNL1        0.1005
     15 C         145.5922  141.3122  163.8848 C.3     1  UNL1        0.1123
     16 C         145.4026  142.1589  162.6612 C.3     1  UNL1        0.0939
     17 N         144.1728  143.0057  162.5184 N.3     1  UNL1       -0.2712
     18 C         143.1061  142.6196  161.5370 C.3     1  UNL1        0.0724
     19 C         141.8763  143.4663  161.3941 C.3     1  UNL1        0.0258
     20 C         141.7131  144.6993  162.2326 C.3     1  UNL1        0.0979
     21 C         142.7798  145.0855  163.2140 C.3     1  UNL1        0.0258
     22 C         144.0096  144.2387  163.3569 C.3     1  UNL1        0.0724
     23 C         140.4833  145.5461  162.0897 C.3     1  UNL1        0.3976
     24 F         139.2534  146.3930  161.9469 F       1  UNL1       -0.1701
     25 F         140.8113  145.7787  160.6446 F       1  UNL1       -0.1701
     26 F         140.1553  145.3136  163.5349 F       1  UNL1       -0.1701
@<TRIPOS>BOND
     1    13    14    3
     2    14     7    1
     3     7     8   ar
     4     8     9   ar
     5     9    10   ar
     6    10    11   ar
     7    11     1    1
     8     1     2    1
     9     2     3    1
    10     3     4    1
    11     4    15    1
    12    15    16    1
    13    16    17    1
    14    17    18    1
    15    18    19    1
    16    19    20    1
    17    20    23    1
    18    23    24    1
    19    23    25    1
    20    23    26    1
    21    20    21    1
    22    21    22    1
    23     4     5   am
    24     5     6    2
    25    11    12   ar
    26    12     7   ar
    27     5     1   am
    28    22    17    1
@<TRIPOS>MOLECULE
*****
 26 28 0 0 0
SMALL
GASTEIGER

@<TRIPOS>ATOM
      1 N         140.4857  138.7829  163.6529 N.am    1  UNL1       -0.2413
      2 C         139.4651  137.7299  163.3372 C.3     1  UNL1        0.1212
      3 C         138.8485  138.0647  162.0113 C.3     1  UNL1        0.1169
      4 N         139.4882  139.3245  161.5076 N.am    1  UNL1       -0.2606
      5 C         140.5000  139.7684  162.5221 C.2     1  UNL1        0.3111
      6 O         141.3728  140.9843  162.4232 O.2     1  UNL1       -0.2520
      7 C         141.6614  139.5121  167.3725 C.ar    1  UNL1        0.0697
      8 C         143.0538  138.9549  167.3441 C.ar    1  UNL1        0.0104
      9 C         143.5901  138.3404  166.0853 C.ar    1  UNL1        0.0020
     10 C         142.7341  138.2830  164.8549 C.ar    1  UNL1        0.0150
     11 C         141.3418  138.8402  164.8833 C.ar    1  UNL1        0.0560
     12 C         140.8054  139.4547  166.1421 C.ar    1  UNL1        0.0252
     13 N         140.5887  140.7411  169.8902 N.1     1  UNL1       -0.1908
     14 C         141.1251  140.1266  168.6314 C.1     1  UNL1        0.1005
     15 C         139.1715  140.0187  160.2161 C.3     1  UNL1        0.1123
     16 C         138.3808  141.2933  160.2239 C.3     1  UNL1        0.0939
     17 N         138.3729  142.1635  161.4457 N.3     1  UNL1       -0.2712
     18 C         137.5363  141.7841  162.6314 C.3     1  UNL1        0.0724
     19 C         137.5284  142.6543  163.8531 C.3     1  UNL1        0.0258
     20 C         138.3572  143.9040  163.8890 C.3     1  UNL1        0.0979
     21 C         139.1938  144.2835  162.7033 C.3     1  UNL1        0.0258
     22 C         139.2017  143.4132  161.4815 C.3     1  UNL1        0.0724
     23 C         138.3493  144.7743  165.1108 C.3     1  UNL1        0.3976
     24 F         138.3414  145.6446  166.3325 F       1  UNL1       -0.1701
     25 F         139.7849  145.1329  164.8646 F       1  UNL1       -0.1701
     26 F         136.9137  144.4157  165.3570 F       1  UNL1       -0.1701
@<TRIPOS>BOND
     1    13    14    3
     2    14     7    1
     3     7     8   ar
     4     8     9   ar
     5     9    10   ar
     6    10    11   ar
     7    11     1    1
     8     1     2    1
     9     2     3    1
    10     3     4    1
    11     4    15    1
    12    15    16    1
    13    16    17    1
    14    17    18    1
    15    18    19    1
    16    19    20    1
    17    20    23    1
    18    23    24    1
    19    23    25    1
    20    23    26    1
    21    20    21    1
    22    21    22    1
    23     4     5   am
    24     5     6    2
    25    11    12   ar
    26    12     7   ar
    27     5     1   am
    28    22    17    1
@<TRIPOS>MOLECULE
*****
 26 28 0 0 0
SMALL
GASTEIGER

@<TRIPOS>ATOM
      1 N         143.1822  140.7786  165.9838 N.am    1  UNL1       -0.2413
      2 C         143.1426  139.6158  165.0370 C.3     1  UNL1        0.1212
      3 C         143.8707  140.0112  163.7866 C.3     1  UNL1        0.1169
      4 N         144.3603  141.4184  163.9606 N.am    1  UNL1       -0.2606
      5 C         143.9348  141.8926  165.3185 C.2     1  UNL1        0.3111
      6 O         144.2130  143.2437  165.9077 O.2     1  UNL1       -0.2520
      7 C         141.3462  142.1286  169.2329 C.ar    1  UNL1        0.0697
      8 C         141.3627  140.9031  170.0977 C.ar    1  UNL1        0.0104
      9 C         141.9857  139.6361  169.5911 C.ar    1  UNL1        0.0020
     10 C         142.5922  139.5946  168.2199 C.ar    1  UNL1        0.0150
     11 C         142.5757  140.8201  167.3552 C.ar    1  UNL1        0.0560
     12 C         141.9527  142.0871  167.8617 C.ar    1  UNL1        0.0252
     13 N         140.1002  144.6626  170.2460 N.1     1  UNL1       -0.1908
     14 C         140.7232  143.3956  169.7395 C.1     1  UNL1        0.1005
     15 C         145.1388  142.2119  162.9535 C.3     1  UNL1        0.1123
     16 C         144.4671  143.3086  162.1814 C.3     1  UNL1        0.0939
     17 N         143.0055  143.5803  162.3816 N.3     1  UNL1       -0.2712
     18 C         142.5668  144.7631  163.1930 C.3     1  UNL1        0.0724
     19 C         141.1054  145.0348  163.3932 C.3     1  UNL1        0.0258
     20 C         140.0825  144.1236  162.7821 C.3     1  UNL1        0.0979
     21 C         140.5212  142.9408  161.9707 C.3     1  UNL1        0.0258
     22 C         141.9828  142.6691  161.7705 C.3     1  UNL1        0.0724
     23 C         138.6210  144.3953  162.9823 C.3     1  UNL1        0.3976
     24 F         137.1594  144.6670  163.1826 F       1  UNL1       -0.1701
     25 F         138.9396  145.2126  164.1991 F       1  UNL1       -0.1701
     26 F         138.3023  143.5779  161.7656 F       1  UNL1       -0.1701
@<TRIPOS>BOND
     1    13    14    3
     2    14     7    1
     3     7     8   ar
     4     8     9   ar
     5     9    10   ar
     6    10    11   ar
     7    11     1    1
     8     1     2    1
     9     2     3    1
    10     3     4    1
    11     4    15    1
    12    15    16    1
    13    16    17    1
    14    17    18    1
    15    18    19    1
    16    19    20    1
    17    20    23    1
    18    23    24    1
    19    23    25    1
    20    23    26    1
    21    20    21    1
    22    21    22    1
    23     4     5   am
    24     5     6    2
    25    11    12   ar
    26    12     7   ar
    27     5     1   am
    28    22    17    1
@<TRIPOS>MOLECULE
*****
 26 28 0 0 0
SMALL
GASTEIGER

@<TRIPOS>ATOM
      1 N         141.1250  139.7588  166.3771 N.am    1  UNL1       -0.2413
      2 C         142.0849  139.5918  165.2366 C.3     1  UNL1        0.1212
      3 C         141.3416  138.9687  164.0924 C.3     1  UNL1        0.1169
      4 N         139.9221  138.7506  164.5258 N.am    1  UNL1       -0.2606
      5 C         139.7883  139.2390  165.9377 C.2     1  UNL1        0.3111
      6 O         138.5374  139.2121  166.7651 O.2     1  UNL1       -0.2520
      7 C         141.1701  142.2424  169.4722 C.ar    1  UNL1        0.0697
      8 C         142.0864  141.5119  170.4085 C.ar    1  UNL1        0.0104
      9 C         142.6823  140.1970  170.0010 C.ar    1  UNL1        0.0020
     10 C         142.3618  139.6126  168.6572 C.ar    1  UNL1        0.0150
     11 C         141.4455  140.3432  167.7209 C.ar    1  UNL1        0.0560
     12 C         140.8496  141.6580  168.1284 C.ar    1  UNL1        0.0252
     13 N         139.9784  144.8721  170.2872 N.1     1  UNL1       -0.1908
     14 C         140.5743  143.5573  169.8797 C.1     1  UNL1        0.1005
     15 C         138.8286  138.1497  163.6933 C.3     1  UNL1        0.1123
     16 C         138.1756  138.9612  162.6139 C.3     1  UNL1        0.0939
     17 N         138.4206  140.4389  162.5344 N.3     1  UNL1       -0.2712
     18 C         137.6482  141.3757  163.4151 C.3     1  UNL1        0.0724
     19 C         137.8932  142.8534  163.3356 C.3     1  UNL1        0.0258
     20 C         138.9107  143.3943  162.3753 C.3     1  UNL1        0.0979
     21 C         139.6831  142.4575  161.4946 C.3     1  UNL1        0.0258
     22 C         139.4381  140.9798  161.5741 C.3     1  UNL1        0.0724
     23 C         139.1557  144.8720  162.2958 C.3     1  UNL1        0.3976
     24 F         139.4007  146.3498  162.2163 F       1  UNL1       -0.1701
     25 F         139.7439  144.7008  160.9266 F       1  UNL1       -0.1701
     26 F         138.5675  145.0433  163.6650 F       1  UNL1       -0.1701
@<TRIPOS>BOND
     1    13    14    3
     2    14     7    1
     3     7     8   ar
     4     8     9   ar
     5     9    10   ar
     6    10    11   ar
     7    11     1    1
     8     1     2    1
     9     2     3    1
    10     3     4    1
    11     4    15    1
    12    15    16    1
    13    16    17    1
    14    17    18    1
    15    18    19    1
    16    19    20    1
    17    20    23    1
    18    23    24    1
    19    23    25    1
    20    23    26    1
    21    20    21    1
    22    21    22    1
    23     4     5   am
    24     5     6    2
    25    11    12   ar
    26    12     7   ar
    27     5     1   am
    28    22    17    1
@<TRIPOS>MOLECULE
*****
 26 28 0 0 0
SMALL
GASTEIGER

@<TRIPOS>ATOM
      1 N         140.4028  138.7366  163.8343 N.am    1  UNL1       -0.2413
      2 C         139.7476  138.7952  162.4861 C.3     1  UNL1        0.1212
      3 C         140.7979  138.5303  161.4484 C.3     1  UNL1        0.1169
      4 N         142.1021  138.3079  162.1553 N.am    1  UNL1       -0.2606
      5 C         141.8579  138.4354  163.6297 C.2     1  UNL1        0.3111
      6 O         142.8880  138.2877  164.7100 O.2     1  UNL1       -0.2520
      7 C         139.5777  140.1601  167.4458 C.ar    1  UNL1        0.0697
      8 C         138.3612  139.3556  167.7964 C.ar    1  UNL1        0.0104
      9 C         137.8252  138.3449  166.8263 C.ar    1  UNL1        0.0020
     10 C         138.5057  138.1385  165.5056 C.ar    1  UNL1        0.0150
     11 C         139.7222  138.9429  165.1550 C.ar    1  UNL1        0.0560
     12 C         140.2582  139.9537  166.1251 C.ar    1  UNL1        0.0252
     13 N         140.6497  142.1816  169.3859 N.1     1  UNL1       -0.1908
     14 C         140.1137  141.1708  168.4159 C.1     1  UNL1        0.1005
     15 C         143.4193  138.0103  161.5022 C.3     1  UNL1        0.1123
     16 C         144.3285  139.1339  161.1012 C.3     1  UNL1        0.0939
     17 N         144.2726  140.4417  161.8337 N.3     1  UNL1       -0.2712
     18 C         145.0047  140.6058  163.1325 C.3     1  UNL1        0.0724
     19 C         144.9489  141.9135  163.8649 C.3     1  UNL1        0.0258
     20 C         144.1609  143.0573  163.2985 C.3     1  UNL1        0.0979
     21 C         143.4288  142.8933  161.9997 C.3     1  UNL1        0.0258
     22 C         143.4846  141.5854  161.2672 C.3     1  UNL1        0.0724
     23 C         144.1050  144.3652  164.0310 C.3     1  UNL1        0.3976
     24 F         144.0491  145.6730  164.7634 F       1  UNL1       -0.1701
     25 F         144.7118  143.7147  165.2387 F       1  UNL1       -0.1701
     26 F         143.4982  145.0156  162.8232 F       1  UNL1       -0.1701
@<TRIPOS>BOND
     1    13    14    3
     2    14     7    1
     3     7     8   ar
     4     8     9   ar
     5     9    10   ar
     6    10    11   ar
     7    11     1    1
     8     1     2    1
     9     2     3    1
    10     3     4    1
    11     4    15    1
    12    15    16    1
    13    16    17    1
    14    17    18    1
    15    18    19    1
    16    19    20    1
    17    20    23    1
    18    23    24    1
    19    23    25    1
    20    23    26    1
    21    20    21    1
    22    21    22    1
    23     4     5   am
    24     5     6    2
    25    11    12   ar
    26    12     7   ar
    27     5     1   am
    28    22    17    1
@<TRIPOS>MOLECULE
*****
 26 28 0 0 0
SMALL
GASTEIGER

@<TRIPOS>ATOM
      1 N         142.3436  142.6647  165.3493 N.am    1  UNL1       -0.2413
      2 C         143.4758  143.0242  164.4333 C.3     1  UNL1        0.1212
      3 C         142.9739  144.0432  163.4537 C.3     1  UNL1        0.1169
      4 N         141.5314  144.3134  163.7642 N.am    1  UNL1       -0.2606
      5 C         141.1419  143.4614  164.9357 C.2     1  UNL1        0.3111
      6 O         139.7884  143.4145  165.5804 O.2     1  UNL1       -0.2520
      7 C         142.1865  141.1506  169.0144 C.ar    1  UNL1        0.0697
      8 C         142.5212  139.7140  168.7422 C.ar    1  UNL1        0.0104
      9 C         142.7967  139.2609  167.3390 C.ar    1  UNL1        0.0020
     10 C         142.7375  140.2445  166.2081 C.ar    1  UNL1        0.0150
     11 C         142.4028  141.6811  166.4803 C.ar    1  UNL1        0.0560
     12 C         142.1274  142.1341  167.8834 C.ar    1  UNL1        0.0252
     13 N         141.6356  142.0567  171.8207 N.1     1  UNL1       -0.1908
     14 C         141.9110  141.6036  170.4175 C.1     1  UNL1        0.1005
     15 C         140.6357  145.2680  163.0317 C.3     1  UNL1        0.1123
     16 C         139.8033  144.7832  161.8819 C.3     1  UNL1        0.0939
     17 N         139.3014  143.3698  161.8627 N.3     1  UNL1       -0.2712
     18 C         138.0150  143.0213  162.5510 C.3     1  UNL1        0.0724
     19 C         137.5132  141.6080  162.5318 C.3     1  UNL1        0.0258
     20 C         138.2977  140.5430  161.8243 C.3     1  UNL1        0.0979
     21 C         139.5840  140.8915  161.1361 C.3     1  UNL1        0.0258
     22 C         140.0859  142.3049  161.1553 C.3     1  UNL1        0.0724
     23 C         137.7958  139.1296  161.8052 C.3     1  UNL1        0.3976
     24 F         137.2939  137.7162  161.7860 F       1  UNL1       -0.1701
     25 F         138.5540  138.8432  163.0673 F       1  UNL1       -0.1701
     26 F         137.0375  139.4160  160.5430 F       1  UNL1       -0.1701
@<TRIPOS>BOND
     1    13    14    3
     2    14     7    1
     3     7     8   ar
     4     8     9   ar
     5     9    10   ar
     6    10    11   ar
     7    11     1    1
     8     1     2    1
     9     2     3    1
    10     3     4    1
    11     4    15    1
    12    15    16    1
    13    16    17    1
    14    17    18    1
    15    18    19    1
    16    19    20    1
    17    20    23    1
    18    23    24    1
    19    23    25    1
    20    23    26    1
    21    20    21    1
    22    21    22    1
    23     4     5   am
    24     5     6    2
    25    11    12   ar
    26    12     7   ar
    27     5     1   am
    28    22    17    1
@<TRIPOS>MOLECULE
*****
 26 28 0 0 0
SMALL
GASTEIGER

@<TRIPOS>ATOM
      1 N         140.7163  139.5637  166.4495 N.am    1  UNL1       -0.2413
      2 C         139.3118  139.6345  165.9277 C.3     1  UNL1        0.1212
      3 C         139.2369  138.7996  164.6838 C.3     1  UNL1        0.1169
      4 N         140.5952  138.2129  164.4368 N.am    1  UNL1       -0.2606
      5 C         141.5095  138.6851  165.5281 C.2     1  UNL1        0.3111
      6 O         142.9619  138.3395  165.6726 O.2     1  UNL1       -0.2520
      7 C         141.1639  142.2457  169.3404 C.ar    1  UNL1        0.0697
      8 C         142.2764  141.6255  170.1326 C.ar    1  UNL1        0.0104
      9 C         142.8689  140.3180  169.6972 C.ar    1  UNL1        0.0020
     10 C         142.3489  139.6308  168.4696 C.ar    1  UNL1        0.0150
     11 C         141.2364  140.2510  167.6773 C.ar    1  UNL1        0.0560
     12 C         140.6439  141.5584  168.1127 C.ar    1  UNL1        0.0252
     13 N         139.9790  144.8606  170.2112 N.1     1  UNL1       -0.1908
     14 C         140.5715  143.5531  169.7758 C.1     1  UNL1        0.1005
     15 C         140.9728  137.3120  163.2984 C.3     1  UNL1        0.1123
     16 C         141.8169  137.8367  162.1750 C.3     1  UNL1        0.0939
     17 N         142.3865  139.2224  162.2488 N.3     1  UNL1       -0.2712
     18 C         141.4847  140.4126  162.1069 C.3     1  UNL1        0.0724
     19 C         142.0543  141.7982  162.1807 C.3     1  UNL1        0.0258
     20 C         143.5258  141.9937  162.3963 C.3     1  UNL1        0.0979
     21 C         144.4276  140.8035  162.5382 C.3     1  UNL1        0.0258
     22 C         143.8580  139.4178  162.4644 C.3     1  UNL1        0.0724
     23 C         144.0955  143.3793  162.4701 C.3     1  UNL1        0.3976
     24 F         144.6651  144.7650  162.5439 F       1  UNL1       -0.1701
     25 F         145.1964  142.8795  163.3579 F       1  UNL1       -0.1701
     26 F         142.9946  143.8792  161.5823 F       1  UNL1       -0.1701
@<TRIPOS>BOND
     1    13    14    3
     2    14     7    1
     3     7     8   ar
     4     8     9   ar
     5     9    10   ar
     6    10    11   ar
     7    11     1    1
     8     1     2    1
     9     2     3    1
    10     3     4    1
    11     4    15    1
    12    15    16    1
    13    16    17    1
    14    17    18    1
    15    18    19    1
    16    19    20    1
    17    20    23    1
    18    23    24    1
    19    23    25    1
    20    23    26    1
    21    20    21    1
    22    21    22    1
    23     4     5   am
    24     5     6    2
    25    11    12   ar
    26    12     7   ar
    27     5     1   am
    28    22    17    1
@<TRIPOS>MOLECULE
*****
 26 28 0 0 0
SMALL
GASTEIGER

@<TRIPOS>ATOM
      1 N         140.4062  138.7287  164.5450 N.am    1  UNL1       -0.2413
      2 C         141.1567  138.0056  163.4662 C.3     1  UNL1        0.1212
      3 C         140.2419  137.8533  162.2873 C.3     1  UNL1        0.1169
      4 N         138.9259  138.4822  162.6376 N.am    1  UNL1       -0.2606
      5 C         139.0275  139.0232  164.0329 C.2     1  UNL1        0.3111
      6 O         137.9410  139.7340  164.7842 O.2     1  UNL1       -0.2520
      7 C         140.5487  139.9866  168.3063 C.ar    1  UNL1        0.0697
      8 C         142.0094  139.8222  168.6051 C.ar    1  UNL1        0.0104
      9 C         142.9357  139.2933  167.5505 C.ar    1  UNL1        0.0020
     10 C         142.4013  138.9287  166.1972 C.ar    1  UNL1        0.0150
     11 C         140.9406  139.0932  165.8984 C.ar    1  UNL1        0.0560
     12 C         140.0143  139.6221  166.9530 C.ar    1  UNL1        0.0252
     13 N         138.6960  141.0445  170.4155 N.1     1  UNL1       -0.1908
     14 C         139.6223  140.5156  169.3609 C.1     1  UNL1        0.1005
     15 C         137.7200  138.5570  161.7486 C.3     1  UNL1        0.1123
     16 C         137.6059  139.6523  160.7301 C.3     1  UNL1        0.0939
     17 N         138.1591  141.0143  161.0282 N.3     1  UNL1       -0.2712
     18 C         137.5817  141.8299  162.1469 C.3     1  UNL1        0.0724
     19 C         138.1349  143.1919  162.4450 C.3     1  UNL1        0.0258
     20 C         139.2654  143.7383  161.6244 C.3     1  UNL1        0.0979
     21 C         139.8427  142.9227  160.5057 C.3     1  UNL1        0.0258
     22 C         139.2895  141.5607  160.2076 C.3     1  UNL1        0.0724
     23 C         139.8186  145.1003  161.9225 C.3     1  UNL1        0.3976
     24 F         140.3718  146.4624  162.2206 F       1  UNL1       -0.1701
     25 F         138.6665  145.3662  162.8455 F       1  UNL1       -0.1701
     26 F         140.9707  144.8344  160.9995 F       1  UNL1       -0.1701
@<TRIPOS>BOND
     1    13    14    3
     2    14     7    1
     3     7     8   ar
     4     8     9   ar
     5     9    10   ar
     6    10    11   ar
     7    11     1    1
     8     1     2    1
     9     2     3    1
    10     3     4    1
    11     4    15    1
    12    15    16    1
    13    16    17    1
    14    17    18    1
    15    18    19    1
    16    19    20    1
    17    20    23    1
    18    23    24    1
    19    23    25    1
    20    23    26    1
    21    20    21    1
    22    21    22    1
    23     4     5   am
    24     5     6    2
    25    11    12   ar
    26    12     7   ar
    27     5     1   am
    28    22    17    1
