@<TRIPOS>MOLECULE
*****
 27 30 0 0 0
SMALL
GASTEIGER

@<TRIPOS>ATOM
      1 C         140.9095  138.5103  162.2561 C.ar    1  UNL1        0.1917
      2 N         139.7344  137.6047  162.0345 N.ar    1  UNL1       -0.1268
      3 N         138.9281  137.5738  163.2990 N.ar    1  UNL1       -0.1316
      4 C         139.6048  138.4603  164.3021 C.ar    1  UNL1        0.1615
      5 N         140.8294  139.0391  163.6575 N.ar    1  UNL1       -0.2940
      6 C         141.7133  139.9729  164.4300 C.3     1  UNL1        0.1302
      7 C         141.3726  140.3279  165.8470 C.3     1  UNL1        0.1186
      8 N         140.1480  139.7492  166.4916 N.am    1  UNL1       -0.2688
      9 C         139.8074  140.1042  167.9085 C.2     1  UNL1        0.2516
     10 O         138.5828  139.5254  168.5531 O.2     1  UNL1       -0.2698
     11 C         139.2641  138.8153  165.7190 C.3     1  UNL1        0.1343
     12 C         138.0395  138.2366  166.3636 C.3     1  UNL1        0.0298
     13 C         140.6913  141.0379  168.6810 C.ar    1  UNL1        0.0834
     14 C         140.2558  142.4522  168.9260 C.ar    1  UNL1        0.0092
     15 C         141.1398  143.3860  169.6985 C.ar    1  UNL1        0.0323
     16 C         142.4592  142.9055  170.2260 C.ar    1  UNL1        0.1696
     17 F         143.3432  143.8392  170.9985 F       1  UNL1       -0.2017
     18 C         142.8947  141.4911  169.9809 C.ar    1  UNL1        0.1947
     19 F         144.2142  141.0106  170.5084 F       1  UNL1       -0.1994
     20 C         142.0108  140.5574  169.2085 C.ar    1  UNL1        0.1739
     21 F         142.4462  139.1431  168.9634 F       1  UNL1       -0.2016
     22 C         143.4676  140.6147  158.1442 C.3     1  UNL1        0.0744
     23 C         143.1530  139.7981  159.3625 C.ar    1  UNL1        0.1481
     24 N         144.0875  138.8500  160.0538 N.ar    1  UNL1       -0.1929
     25 S         143.3608  138.2522  161.2220 S.2     1  UNL1        0.0369
     26 C         141.9772  138.8308  161.2525 C.ar    1  UNL1        0.1652
     27 N         141.8488  139.7862  160.1033 N.ar    1  UNL1       -0.2190
@<TRIPOS>BOND
     1    22    23    1
     2    23    24   ar
     3    24    25   ar
     4    25    26   ar
     5    26     1    1
     6     1     2   ar
     7     2     3   ar
     8     3     4   ar
     9     4     5   ar
    10     5     6    1
    11     6     7    1
    12     7     8    1
    13     8     9   am
    14     9    10    2
    15     9    13    1
    16    13    14   ar
    17    14    15   ar
    18    15    16   ar
    19    16    17    1
    20    16    18   ar
    21    18    19    1
    22    18    20   ar
    23    20    21    1
    24     8    11    1
    25    11    12    1
    26    26    27   ar
    27    27    23   ar
    28     5     1   ar
    29    20    13   ar
    30    11     4    1
@<TRIPOS>MOLECULE
*****
 27 30 0 0 0
SMALL
GASTEIGER

@<TRIPOS>ATOM
      1 C         143.2837  141.4036  161.9317 C.ar    1  UNL1        0.1917
      2 N         144.1779  140.2573  161.5622 N.ar    1  UNL1       -0.1268
      3 N         144.3761  139.4113  162.7848 N.ar    1  UNL1       -0.1316
      4 C         143.6044  140.0346  163.9100 C.ar    1  UNL1        0.1615
      5 N         142.9293  141.2660  163.3827 N.ar    1  UNL1       -0.2940
      6 C         142.0790  142.1028  164.2919 C.3     1  UNL1        0.1302
      7 C         141.9038  141.7083  165.7285 C.3     1  UNL1        0.1186
      8 N         142.5789  140.4769  166.2558 N.am    1  UNL1       -0.2688
      9 C         142.4037  140.0824  167.6923 C.2     1  UNL1        0.2516
     10 O         143.0788  138.8511  168.2196 O.2     1  UNL1       -0.2698
     11 C         143.4292  139.6401  165.3465 C.3     1  UNL1        0.1343
     12 C         144.1043  138.4088  165.8738 C.3     1  UNL1        0.0298
     13 C         141.5534  140.9192  168.6015 C.ar    1  UNL1        0.0834
     14 C         140.2079  140.4211  169.0391 C.ar    1  UNL1        0.0092
     15 C         139.3576  141.2580  169.9483 C.ar    1  UNL1        0.0323
     16 C         139.8528  142.5930  170.4200 C.ar    1  UNL1        0.1696
     17 F         139.0025  143.4298  171.3292 F       1  UNL1       -0.2017
     18 C         141.1983  143.0911  169.9824 C.ar    1  UNL1        0.1947
     19 F         141.6935  144.4262  170.4541 F       1  UNL1       -0.1994
     20 C         142.0486  142.2543  169.0732 C.ar    1  UNL1        0.1739
     21 F         143.3941  142.7525  168.6357 F       1  UNL1       -0.2016
     22 C         140.5344  145.4192  159.8831 C.3     1  UNL1        0.0744
     23 C         141.5608  144.3415  160.0701 C.ar    1  UNL1        0.1481
     24 N         142.6752  144.0113  159.1218 N.ar    1  UNL1       -0.1929
     25 S         143.4563  142.8705  159.7038 S.2     1  UNL1        0.0369
     26 C         142.8246  142.4957  161.0117 C.ar    1  UNL1        0.1652
     27 N         141.6532  143.4048  161.2381 N.ar    1  UNL1       -0.2190
@<TRIPOS>BOND
     1    22    23    1
     2    23    24   ar
     3    24    25   ar
     4    25    26   ar
     5    26     1    1
     6     1     2   ar
     7     2     3   ar
     8     3     4   ar
     9     4     5   ar
    10     5     6    1
    11     6     7    1
    12     7     8    1
    13     8     9   am
    14     9    10    2
    15     9    13    1
    16    13    14   ar
    17    14    15   ar
    18    15    16   ar
    19    16    17    1
    20    16    18   ar
    21    18    19    1
    22    18    20   ar
    23    20    21    1
    24     8    11    1
    25    11    12    1
    26    26    27   ar
    27    27    23   ar
    28     5     1   ar
    29    20    13   ar
    30    11     4    1
@<TRIPOS>MOLECULE
*****
 27 30 0 0 0
SMALL
GASTEIGER

@<TRIPOS>ATOM
      1 C         140.0471  139.8385  162.0027 C.ar    1  UNL1        0.1917
      2 N         138.9644  138.8185  161.8090 N.ar    1  UNL1       -0.1268
      3 N         138.4054  138.4743  163.1577 N.ar    1  UNL1       -0.1316
      4 C         139.1425  139.2814  164.1849 C.ar    1  UNL1        0.1615
      5 N         140.1572  140.1245  163.4710 N.ar    1  UNL1       -0.2940
      6 C         141.0503  141.0438  164.2503 C.3     1  UNL1        0.1302
      7 C         140.9287  141.1200  165.7435 C.3     1  UNL1        0.1186
      8 N         139.9141  140.2768  166.4573 N.am    1  UNL1       -0.2688
      9 C         139.7925  140.3530  167.9504 C.2     1  UNL1        0.2516
     10 O         138.7778  139.5099  168.6642 O.2     1  UNL1       -0.2698
     11 C         139.0210  139.3575  165.6780 C.3     1  UNL1        0.1343
     12 C         138.0063  138.5144  166.3918 C.3     1  UNL1        0.0298
     13 C         140.6856  141.2723  168.7296 C.ar    1  UNL1        0.0834
     14 C         140.1990  142.6357  169.1225 C.ar    1  UNL1        0.0092
     15 C         141.0922  143.5550  169.9018 C.ar    1  UNL1        0.0323
     16 C         142.4718  143.1108  170.2882 C.ar    1  UNL1        0.1696
     17 F         143.3650  144.0301  171.0675 F       1  UNL1       -0.2017
     18 C         142.9583  141.7474  169.8954 C.ar    1  UNL1        0.1947
     19 F         144.3380  141.3033  170.2818 F       1  UNL1       -0.1994
     20 C         142.0652  140.8281  169.1161 C.ar    1  UNL1        0.1739
     21 F         142.5518  139.4647  168.7233 F       1  UNL1       -0.2016
     22 C         141.5306  142.8147  157.9012 C.3     1  UNL1        0.0744
     23 C         141.5563  141.8308  159.0331 C.ar    1  UNL1        0.1481
     24 N         142.7390  141.0161  159.4664 N.ar    1  UNL1       -0.1929
     25 S         142.3175  140.1706  160.6316 S.2     1  UNL1        0.0369
     26 C         140.8745  140.4628  160.9184 C.ar    1  UNL1        0.1652
     27 N         140.4040  141.4888  159.9305 N.ar    1  UNL1       -0.2190
@<TRIPOS>BOND
     1    22    23    1
     2    23    24   ar
     3    24    25   ar
     4    25    26   ar
     5    26     1    1
     6     1     2   ar
     7     2     3   ar
     8     3     4   ar
     9     4     5   ar
    10     5     6    1
    11     6     7    1
    12     7     8    1
    13     8     9   am
    14     9    10    2
    15     9    13    1
    16    13    14   ar
    17    14    15   ar
    18    15    16   ar
    19    16    17    1
    20    16    18   ar
    21    18    19    1
    22    18    20   ar
    23    20    21    1
    24     8    11    1
    25    11    12    1
    26    26    27   ar
    27    27    23   ar
    28     5     1   ar
    29    20    13   ar
    30    11     4    1
@<TRIPOS>MOLECULE
*****
 27 30 0 0 0
SMALL
GASTEIGER

@<TRIPOS>ATOM
      1 C         142.8875  143.4255  158.7326 C.ar    1  UNL1        0.1917
      2 N         142.5889  144.7795  158.1604 N.ar    1  UNL1       -0.1268
      3 N         141.7257  145.5169  159.1408 N.ar    1  UNL1       -0.1316
      4 C         141.4908  144.6187  160.3189 C.ar    1  UNL1        0.1615
      5 N         142.2089  143.3261  160.0667 N.ar    1  UNL1       -0.2940
      6 C         142.1520  142.2256  161.0843 C.3     1  UNL1        0.1302
      7 C         141.3771  142.4176  162.3542 C.3     1  UNL1        0.1186
      8 N         140.6590  143.7102  162.6064 N.am    1  UNL1       -0.2688
      9 C         139.8841  143.9023  163.8763 C.2     1  UNL1        0.2516
     10 O         139.1660  145.1949  164.1285 O.2     1  UNL1       -0.2698
     11 C         140.7159  144.8108  161.5887 C.3     1  UNL1        0.1343
     12 C         139.9979  146.1033  161.8410 C.3     1  UNL1        0.0298
     13 C         139.8272  142.8018  164.8939 C.ar    1  UNL1        0.0834
     14 C         140.8022  142.7831  166.0337 C.ar    1  UNL1        0.0092
     15 C         140.7453  141.6825  167.0513 C.ar    1  UNL1        0.0323
     16 C         139.7135  140.6007  166.9292 C.ar    1  UNL1        0.1696
     17 F         139.6566  139.5001  167.9468 F       1  UNL1       -0.2017
     18 C         138.7385  140.6194  165.7894 C.ar    1  UNL1        0.1947
     19 F         137.7066  139.5375  165.6673 F       1  UNL1       -0.1994
     20 C         138.7953  141.7199  164.7718 C.ar    1  UNL1        0.1739
     21 F         137.8204  141.7386  163.6320 F       1  UNL1       -0.2016
     22 C         146.2499  140.9481  155.5019 C.3     1  UNL1        0.0744
     23 C         145.2643  141.2196  156.5996 C.ar    1  UNL1        0.1481
     24 N         144.7319  140.2123  157.5753 N.ar    1  UNL1       -0.1929
     25 S         143.7766  140.9161  158.4932 S.2     1  UNL1        0.0369
     26 C         143.7188  142.3583  158.0847 C.ar    1  UNL1        0.1652
     27 N         144.6382  142.5458  156.9144 N.ar    1  UNL1       -0.2190
@<TRIPOS>BOND
     1    22    23    1
     2    23    24   ar
     3    24    25   ar
     4    25    26   ar
     5    26     1    1
     6     1     2   ar
     7     2     3   ar
     8     3     4   ar
     9     4     5   ar
    10     5     6    1
    11     6     7    1
    12     7     8    1
    13     8     9   am
    14     9    10    2
    15     9    13    1
    16    13    14   ar
    17    14    15   ar
    18    15    16   ar
    19    16    17    1
    20    16    18   ar
    21    18    19    1
    22    18    20   ar
    23    20    21    1
    24     8    11    1
    25    11    12    1
    26    26    27   ar
    27    27    23   ar
    28     5     1   ar
    29    20    13   ar
    30    11     4    1
@<TRIPOS>MOLECULE
*****
 27 30 0 0 0
SMALL
GASTEIGER

@<TRIPOS>ATOM
      1 C         141.3442  140.9421  161.4427 C.ar    1  UNL1        0.1917
      2 N         142.3368  139.9262  160.9605 N.ar    1  UNL1       -0.1268
      3 N         142.9924  139.3122  162.1619 N.ar    1  UNL1       -0.1316
      4 C         142.4049  139.9487  163.3865 C.ar    1  UNL1        0.1615
      5 N         141.3862  140.9561  162.9420 N.ar    1  UNL1       -0.2940
      6 C         140.6285  141.7559  163.9599 C.3     1  UNL1        0.1302
      7 C         140.8895  141.5483  165.4225 C.3     1  UNL1        0.1186
      8 N         141.9081  140.5409  165.8670 N.am    1  UNL1       -0.2688
      9 C         142.1691  140.3334  167.3294 C.2     1  UNL1        0.2516
     10 O         143.1878  139.3260  167.7739 O.2     1  UNL1       -0.2698
     11 C         142.6658  139.7411  164.8489 C.3     1  UNL1        0.1343
     12 C         143.6845  138.7338  165.2935 C.3     1  UNL1        0.0298
     13 C         141.4115  141.1332  168.3473 C.ar    1  UNL1        0.0834
     14 C         141.9741  142.4281  168.8538 C.ar    1  UNL1        0.0092
     15 C         141.2163  143.2279  169.8718 C.ar    1  UNL1        0.0323
     16 C         139.8960  142.7328  170.3832 C.ar    1  UNL1        0.1696
     17 F         139.1383  143.5326  171.4012 F       1  UNL1       -0.2017
     18 C         139.3334  141.4378  169.8767 C.ar    1  UNL1        0.1947
     19 F         138.0130  140.9427  170.3882 F       1  UNL1       -0.1994
     20 C         140.0911  140.6380  168.8588 C.ar    1  UNL1        0.1739
     21 F         139.5284  139.3431  168.3523 F       1  UNL1       -0.2016
     22 C         137.9326  142.4713  157.7139 C.3     1  UNL1        0.0744
     23 C         138.8959  142.4974  158.8635 C.ar    1  UNL1        0.1481
     24 N         139.3232  143.7151  159.6282 N.ar    1  UNL1       -0.1929
     25 S         140.2924  143.2806  160.6875 S.2     1  UNL1        0.0369
     26 C         140.4640  141.7945  160.5774 C.ar    1  UNL1        0.1652
     27 N         139.6009  141.3105  159.4501 N.ar    1  UNL1       -0.2190
@<TRIPOS>BOND
     1    22    23    1
     2    23    24   ar
     3    24    25   ar
     4    25    26   ar
     5    26     1    1
     6     1     2   ar
     7     2     3   ar
     8     3     4   ar
     9     4     5   ar
    10     5     6    1
    11     6     7    1
    12     7     8    1
    13     8     9   am
    14     9    10    2
    15     9    13    1
    16    13    14   ar
    17    14    15   ar
    18    15    16   ar
    19    16    17    1
    20    16    18   ar
    21    18    19    1
    22    18    20   ar
    23    20    21    1
    24     8    11    1
    25    11    12    1
    26    26    27   ar
    27    27    23   ar
    28     5     1   ar
    29    20    13   ar
    30    11     4    1
@<TRIPOS>MOLECULE
*****
 27 30 0 0 0
SMALL
GASTEIGER

@<TRIPOS>ATOM
      1 C         143.2686  139.9547  158.4005 C.ar    1  UNL1        0.1917
      2 N         142.9523  138.5609  157.9456 N.ar    1  UNL1       -0.1268
      3 N         141.7886  138.0634  158.7508 N.ar    1  UNL1       -0.1316
      4 C         141.3858  139.1498  159.7034 C.ar    1  UNL1        0.1615
      5 N         142.3005  140.3188  159.4869 N.ar    1  UNL1       -0.2940
      6 C         142.1337  141.5636  160.3070 C.3     1  UNL1        0.1302
      7 C         141.0521  141.6395  161.3436 C.3     1  UNL1        0.1186
      8 N         140.1373  140.4706  161.5601 N.am    1  UNL1       -0.2688
      9 C         139.0558  140.5465  162.5966 C.2     1  UNL1        0.2516
     10 O         138.1411  139.3775  162.8131 O.2     1  UNL1       -0.2698
     11 C         140.3042  139.2257  160.7399 C.3     1  UNL1        0.1343
     12 C         139.3895  138.0568  160.9564 C.3     1  UNL1        0.0298
     13 C         138.8890  141.7913  163.4166 C.ar    1  UNL1        0.0834
     14 C         137.9517  142.8700  162.9605 C.ar    1  UNL1        0.0092
     15 C         137.7849  144.1148  163.7806 C.ar    1  UNL1        0.0323
     16 C         138.5553  144.2810  165.0568 C.ar    1  UNL1        0.1696
     17 F         138.3885  145.5259  165.8769 F       1  UNL1       -0.2017
     18 C         139.4926  143.2024  165.5130 C.ar    1  UNL1        0.1947
     19 F         140.2630  143.3686  166.7893 F       1  UNL1       -0.1994
     20 C         139.6594  141.9575  164.6929 C.ar    1  UNL1        0.1739
     21 F         140.5966  140.8789  165.1491 F       1  UNL1       -0.2016
     22 C         147.3080  141.7405  155.5065 C.3     1  UNL1        0.0744
     23 C         146.2180  141.6516  156.5332 C.ar    1  UNL1        0.1481
     24 N         145.8676  142.7064  157.5405 N.ar    1  UNL1       -0.1929
     25 S         144.7200  142.1991  158.3627 S.2     1  UNL1        0.0369
     26 C         144.3613  140.8309  157.8634 C.ar    1  UNL1        0.1652
     27 N         145.2871  140.4925  156.7327 N.ar    1  UNL1       -0.2190
@<TRIPOS>BOND
     1    22    23    1
     2    23    24   ar
     3    24    25   ar
     4    25    26   ar
     5    26     1    1
     6     1     2   ar
     7     2     3   ar
     8     3     4   ar
     9     4     5   ar
    10     5     6    1
    11     6     7    1
    12     7     8    1
    13     8     9   am
    14     9    10    2
    15     9    13    1
    16    13    14   ar
    17    14    15   ar
    18    15    16   ar
    19    16    17    1
    20    16    18   ar
    21    18    19    1
    22    18    20   ar
    23    20    21    1
    24     8    11    1
    25    11    12    1
    26    26    27   ar
    27    27    23   ar
    28     5     1   ar
    29    20    13   ar
    30    11     4    1
@<TRIPOS>MOLECULE
*****
 27 30 0 0 0
SMALL
GASTEIGER

@<TRIPOS>ATOM
      1 C         139.9777  141.8930  160.0686 C.ar    1  UNL1        0.1917
      2 N         139.4409  140.8479  159.1361 N.ar    1  UNL1       -0.1268
      3 N         139.1261  139.6237  159.9437 N.ar    1  UNL1       -0.1316
      4 C         139.4684  139.9122  161.3754 C.ar    1  UNL1        0.1615
      5 N         139.9947  141.3147  161.4526 N.ar    1  UNL1       -0.2940
      6 C         140.4215  141.8840  162.7731 C.3     1  UNL1        0.1302
      7 C         140.3219  141.0508  164.0165 C.3     1  UNL1        0.1186
      8 N         139.7956  139.6483  163.9393 N.am    1  UNL1       -0.2688
      9 C         139.6960  138.8151  165.1826 C.2     1  UNL1        0.2516
     10 O         139.1696  137.4126  165.1054 O.2     1  UNL1       -0.2698
     11 C         139.3688  139.0790  162.6187 C.3     1  UNL1        0.1343
     12 C         138.8425  137.6765  162.5415 C.3     1  UNL1        0.0298
     13 C         140.1227  139.3844  166.5030 C.ar    1  UNL1        0.0834
     14 C         141.5678  139.7002  166.7518 C.ar    1  UNL1        0.0092
     15 C         141.9946  140.2696  168.0724 C.ar    1  UNL1        0.0323
     16 C         140.9762  140.5230  169.1441 C.ar    1  UNL1        0.1696
     17 F         141.4029  141.0923  170.4647 F       1  UNL1       -0.2017
     18 C         139.5311  140.2071  168.8954 C.ar    1  UNL1        0.1947
     19 F         138.5127  140.4606  169.9672 F       1  UNL1       -0.1994
     20 C         139.1044  139.6378  167.5749 C.ar    1  UNL1        0.1739
     21 F         137.6592  139.3219  167.3261 F       1  UNL1       -0.2016
     22 C         142.1354  145.9211  157.4231 C.3     1  UNL1        0.0744
     23 C         141.4117  145.1254  158.4686 C.ar    1  UNL1        0.1481
     24 N         140.7891  145.6725  159.7189 N.ar    1  UNL1       -0.1929
     25 S         140.1762  144.5281  160.4705 S.2     1  UNL1        0.0369
     26 C         140.4199  143.2739  159.6847 C.ar    1  UNL1        0.1652
     27 N         141.1835  143.6430  158.4474 N.ar    1  UNL1       -0.2190
@<TRIPOS>BOND
     1    22    23    1
     2    23    24   ar
     3    24    25   ar
     4    25    26   ar
     5    26     1    1
     6     1     2   ar
     7     2     3   ar
     8     3     4   ar
     9     4     5   ar
    10     5     6    1
    11     6     7    1
    12     7     8    1
    13     8     9   am
    14     9    10    2
    15     9    13    1
    16    13    14   ar
    17    14    15   ar
    18    15    16   ar
    19    16    17    1
    20    16    18   ar
    21    18    19    1
    22    18    20   ar
    23    20    21    1
    24     8    11    1
    25    11    12    1
    26    26    27   ar
    27    27    23   ar
    28     5     1   ar
    29    20    13   ar
    30    11     4    1
@<TRIPOS>MOLECULE
*****
 27 30 0 0 0
SMALL
GASTEIGER

@<TRIPOS>ATOM
      1 C         139.7330  141.6089  161.1740 C.ar    1  UNL1        0.1917
      2 N         138.7883  142.6971  160.7579 N.ar    1  UNL1       -0.1268
      3 N         138.4808  143.5310  161.9662 N.ar    1  UNL1       -0.1316
      4 C         139.2354  142.9581  163.1291 C.ar    1  UNL1        0.1615
      5 N         140.0094  141.7701  162.6395 N.ar    1  UNL1       -0.2940
      6 C         140.8658  140.9887  163.5913 C.3     1  UNL1        0.1302
      7 C         140.9482  141.3952  165.0328 C.3     1  UNL1        0.1186
      8 N         140.1743  142.5832  165.5225 N.am    1  UNL1       -0.2688
      9 C         140.2567  142.9897  166.9639 C.2     1  UNL1        0.2516
     10 O         139.4827  144.1777  167.4536 O.2     1  UNL1       -0.2698
     11 C         139.3179  143.3646  164.5706 C.3     1  UNL1        0.1343
     12 C         138.5439  144.5526  165.0602 C.3     1  UNL1        0.0298
     13 C         141.1131  142.2083  167.9157 C.ar    1  UNL1        0.0834
     14 C         142.5442  142.6015  168.1328 C.ar    1  UNL1        0.0092
     15 C         143.4006  141.8200  169.0847 C.ar    1  UNL1        0.0323
     16 C         142.8258  140.6454  169.8194 C.ar    1  UNL1        0.1696
     17 F         143.6822  139.8640  170.7713 F       1  UNL1       -0.2017
     18 C         141.3946  140.2522  169.6023 C.ar    1  UNL1        0.1947
     19 F         140.8198  139.0776  170.3371 F       1  UNL1       -0.1994
     20 C         140.5383  141.0337  168.6505 C.ar    1  UNL1        0.1739
     21 F         139.1071  140.6405  168.4334 F       1  UNL1       -0.2016
     22 C         142.8648  139.0460  157.7821 C.3     1  UNL1        0.0744
     23 C         141.7411  139.3679  158.7222 C.ar    1  UNL1        0.1481
     24 N         140.6121  138.4525  159.0929 N.ar    1  UNL1       -0.1929
     25 S         139.7224  139.1806  160.0565 S.2     1  UNL1        0.0369
     26 C         140.3016  140.5459  160.2813 C.ar    1  UNL1        0.1652
     27 N         141.5493  140.6617  159.4567 N.ar    1  UNL1       -0.2190
@<TRIPOS>BOND
     1    22    23    1
     2    23    24   ar
     3    24    25   ar
     4    25    26   ar
     5    26     1    1
     6     1     2   ar
     7     2     3   ar
     8     3     4   ar
     9     4     5   ar
    10     5     6    1
    11     6     7    1
    12     7     8    1
    13     8     9   am
    14     9    10    2
    15     9    13    1
    16    13    14   ar
    17    14    15   ar
    18    15    16   ar
    19    16    17    1
    20    16    18   ar
    21    18    19    1
    22    18    20   ar
    23    20    21    1
    24     8    11    1
    25    11    12    1
    26    26    27   ar
    27    27    23   ar
    28     5     1   ar
    29    20    13   ar
    30    11     4    1
@<TRIPOS>MOLECULE
*****
 27 30 0 0 0
SMALL
GASTEIGER

@<TRIPOS>ATOM
      1 C         140.4996  140.2788  159.1797 C.ar    1  UNL1        0.1917
      2 N         139.3248  140.9466  158.5286 N.ar    1  UNL1       -0.1268
      3 N         138.5946  141.7284  159.5801 N.ar    1  UNL1       -0.1316
      4 C         139.3182  141.5438  160.8810 C.ar    1  UNL1        0.1615
      5 N         140.4955  140.6479  160.6336 N.ar    1  UNL1       -0.2940
      6 C         141.4118  140.2840  161.7640 C.3     1  UNL1        0.1302
      7 C         141.1507  140.8160  163.1421 C.3     1  UNL1        0.1186
      8 N         139.9734  141.7119  163.3896 N.am    1  UNL1       -0.2688
      9 C         139.7123  142.2438  164.7675 C.2     1  UNL1        0.2516
     10 O         138.5349  143.1397  165.0150 O.2     1  UNL1       -0.2698
     11 C         139.0571  142.0758  162.2590 C.3     1  UNL1        0.1343
     12 C         137.8797  142.9717  162.5065 C.3     1  UNL1        0.0298
     13 C         140.6285  141.8799  165.8980 C.ar    1  UNL1        0.0834
     14 C         141.9663  142.5467  166.0235 C.ar    1  UNL1        0.0092
     15 C         142.8825  142.1828  167.1541 C.ar    1  UNL1        0.0323
     16 C         142.4610  141.1520  168.1590 C.ar    1  UNL1        0.1696
     17 F         143.3773  140.7881  169.2895 F       1  UNL1       -0.2017
     18 C         141.1233  140.4852  168.0334 C.ar    1  UNL1        0.1947
     19 F         140.7018  139.4544  169.0384 F       1  UNL1       -0.1994
     20 C         140.2070  140.8491  166.9030 C.ar    1  UNL1        0.1739
     21 F         138.8693  140.1823  166.7774 F       1  UNL1       -0.2016
     22 C         142.7925  136.0898  156.9269 C.3     1  UNL1        0.0744
     23 C         142.5563  137.4713  157.4613 C.ar    1  UNL1        0.1481
     24 N         143.5350  138.6077  157.4305 N.ar    1  UNL1       -0.1929
     25 S         142.8836  139.7978  158.0705 S.2     1  UNL1        0.0369
     26 C         141.5024  139.3968  158.4968 C.ar    1  UNL1        0.1652
     27 N         141.3002  137.9590  158.1203 N.ar    1  UNL1       -0.2190
@<TRIPOS>BOND
     1    22    23    1
     2    23    24   ar
     3    24    25   ar
     4    25    26   ar
     5    26     1    1
     6     1     2   ar
     7     2     3   ar
     8     3     4   ar
     9     4     5   ar
    10     5     6    1
    11     6     7    1
    12     7     8    1
    13     8     9   am
    14     9    10    2
    15     9    13    1
    16    13    14   ar
    17    14    15   ar
    18    15    16   ar
    19    16    17    1
    20    16    18   ar
    21    18    19    1
    22    18    20   ar
    23    20    21    1
    24     8    11    1
    25    11    12    1
    26    26    27   ar
    27    27    23   ar
    28     5     1   ar
    29    20    13   ar
    30    11     4    1
