@<TRIPOS>MOLECULE
*****
 31 34 0 0 0
SMALL
GASTEIGER

@<TRIPOS>ATOM
      1 C         143.5003  140.6303  158.7655 C.2     1  UNL1        0.0596
      2 C         143.7721  139.5958  159.8173 C.2     1  UNL1        0.0324
      3 C         142.7140  139.2538  160.8240 C.2     1  UNL1        0.0889
      4 N         142.6933  138.2841  161.9681 N.2     1  UNL1       -0.2236
      5 C         141.3506  138.3772  162.6302 C.2     1  UNL1        0.1859
      6 N         140.5415  139.4044  161.8953 N.2     1  UNL1       -0.2387
      7 C         141.3842  139.9462  160.7789 C.3     1  UNL1        0.1679
      8 C         141.1124  140.9806  159.7272 C.2     1  UNL1        0.0164
      9 C         142.1705  141.3226  158.7205 C.2     1  UNL1        0.0690
     10 CL        141.8986  142.3571  157.6687 Cl      1  UNL1       -0.0812
     11 N         146.6746  141.6563  155.7453 N.3     1  UNL1       -0.2698
     12 C         146.5142  142.4945  156.9790 C.3     1  UNL1        0.0938
     13 C         145.4561  142.1524  157.9856 C.3     1  UNL1        0.1081
     14 N         144.5584  140.9723  157.7587 N.pl3   1  UNL1       -0.3040
     15 C         144.7188  140.1342  156.5251 C.3     1  UNL1        0.1081
     16 C         145.7769  140.4762  155.5184 C.3     1  UNL1        0.0938
     17 C         149.1809  141.8020  155.0765 C.3     1  UNL1        0.0188
     18 C         147.7326  141.9983  154.7386 C.3     1  UNL1        0.0722
     19 S         140.8966  137.5825  163.8187 S.3     1  UNL1       -0.0777
     20 C         140.0243  138.2207  164.8588 C.3     1  UNL1        0.0462
     21 C         138.9871  137.4798  164.0680 C.3     1  UNL1        0.0113
     22 C         141.3645  138.7399  165.2884 C.3     1  UNL1        0.0121
     23 C         141.4722  139.6400  166.4835 C.3     1  UNL1        0.0207
     24 C         140.2396  140.0209  167.2490 C.3     1  UNL1        0.0754
     25 C         138.8996  139.5017  166.8194 C.3     1  UNL1        0.0207
     26 C         138.7919  138.6016  165.6243 C.3     1  UNL1        0.0121
     27 N         140.3473  140.9210  168.4441 N.am    1  UNL1       -0.2794
     28 C         140.3396  140.3373  169.8258 C.3     1  UNL1        0.1148
     29 C         140.4628  142.4049  168.2575 C.2     1  UNL1        0.2261
     30 C         140.5705  143.3050  169.4526 C.3     1  UNL1        0.0948
     31 O         140.4706  142.9887  166.8758 O.2     1  UNL1       -0.2749
@<TRIPOS>BOND
     1    17    18    1
     2    18    11    1
     3    11    12    1
     4    12    13    1
     5    13    14    1
     6    14     1    1
     7     1     2    2
     8     2     3    1
     9     3     4    2
    10     4     5    1
    11     5    19    1
    12    19    20    1
    13    20    21    1
    14    20    22    1
    15    22    23    1
    16    23    24    1
    17    24    27    1
    18    27    28    1
    19    27    29   am
    20    29    30    1
    21    29    31    2
    22    24    25    1
    23    25    26    1
    24     5     6    2
    25     6     7    1
    26     7     8    1
    27     8     9    2
    28     9    10    1
    29    14    15    1
    30    15    16    1
    31    16    11    1
    32     9     1    1
    33     7     3    1
    34    26    20    1
@<TRIPOS>MOLECULE
*****
 31 34 0 0 0
SMALL
GASTEIGER

@<TRIPOS>ATOM
      1 C         142.3130  143.5230  158.5821 C.2     1  UNL1        0.0596
      2 C         141.7787  142.5920  159.6298 C.2     1  UNL1        0.0324
      3 C         140.7076  143.0576  160.5711 C.2     1  UNL1        0.0889
      4 N         139.9920  142.3704  161.6961 N.2     1  UNL1       -0.2236
      5 C         139.0129  143.3423  162.2849 C.2     1  UNL1        0.1859
      6 N         139.1234  144.6302  161.5238 N.2     1  UNL1       -0.2387
      7 C         140.1708  144.4542  160.4646 C.3     1  UNL1        0.1679
      8 C         140.7051  145.3852  159.4168 C.2     1  UNL1        0.0164
      9 C         141.7762  144.9196  158.4756 C.2     1  UNL1        0.0690
     10 CL        142.3104  145.8507  157.4278 Cl      1  UNL1       -0.0812
     11 N         145.5263  142.1262  155.7583 N.3     1  UNL1       -0.2698
     12 C         144.1643  142.4711  155.2330 C.3     1  UNL1        0.0938
     13 C         143.0932  142.9367  156.1742 C.3     1  UNL1        0.1081
     14 N         143.3841  143.0574  157.6408 N.pl3   1  UNL1       -0.3040
     15 C         144.7461  142.7125  158.1661 C.3     1  UNL1        0.1081
     16 C         145.8172  142.2469  157.2248 C.3     1  UNL1        0.0938
     17 C         148.0028  142.1612  154.9736 C.3     1  UNL1        0.0188
     18 C         146.5974  141.6607  154.8171 C.3     1  UNL1        0.0722
     19 S         138.0860  143.0736  163.4332 S.3     1  UNL1       -0.0777
     20 C         138.2456  141.8255  164.2497 C.3     1  UNL1        0.0462
     21 C         137.2941  141.3308  163.2010 C.3     1  UNL1        0.0113
     22 C         139.1417  142.7537  165.0149 C.3     1  UNL1        0.0121
     23 C         139.8670  142.2621  166.2324 C.3     1  UNL1        0.0207
     24 C         139.6961  140.8420  166.6847 C.3     1  UNL1        0.0754
     25 C         138.8001  139.9139  165.9195 C.3     1  UNL1        0.0207
     26 C         138.0748  140.4056  164.7020 C.3     1  UNL1        0.0121
     27 N         140.4214  140.3503  167.9021 N.am    1  UNL1       -0.2794
     28 C         139.7308  140.3406  169.2336 C.3     1  UNL1        0.1148
     29 C         141.8374  139.8684  167.7881 C.2     1  UNL1        0.2261
     30 C         142.5626  139.3767  169.0056 C.3     1  UNL1        0.0948
     31 O         142.5280  139.8781  166.4566 O.2     1  UNL1       -0.2749
@<TRIPOS>BOND
     1    17    18    1
     2    18    11    1
     3    11    12    1
     4    12    13    1
     5    13    14    1
     6    14     1    1
     7     1     2    2
     8     2     3    1
     9     3     4    2
    10     4     5    1
    11     5    19    1
    12    19    20    1
    13    20    21    1
    14    20    22    1
    15    22    23    1
    16    23    24    1
    17    24    27    1
    18    27    28    1
    19    27    29   am
    20    29    30    1
    21    29    31    2
    22    24    25    1
    23    25    26    1
    24     5     6    2
    25     6     7    1
    26     7     8    1
    27     8     9    2
    28     9    10    1
    29    14    15    1
    30    15    16    1
    31    16    11    1
    32     9     1    1
    33     7     3    1
    34    26    20    1
@<TRIPOS>MOLECULE
*****
 31 34 0 0 0
SMALL
GASTEIGER

@<TRIPOS>ATOM
      1 C         140.1541  142.6200  163.9510 C.2     1  UNL1        0.0596
      2 C         140.6838  141.9710  162.7067 C.2     1  UNL1        0.0324
      3 C         140.4276  142.5962  161.3675 C.2     1  UNL1        0.0889
      4 N         140.8206  142.1895  159.9782 N.2     1  UNL1       -0.2236
      5 C         140.2777  143.2122  159.0248 C.2     1  UNL1        0.1859
      6 N         139.5491  144.2511  159.8247 N.2     1  UNL1       -0.2387
      7 C         139.6418  143.8704  161.2726 C.3     1  UNL1        0.1679
      8 C         139.1121  144.5193  162.5170 C.2     1  UNL1        0.0164
      9 C         139.3683  143.8941  163.8561 C.2     1  UNL1        0.0690
     10 CL        138.8386  144.5431  165.1005 Cl      1  UNL1       -0.0812
     11 N         140.9226  140.7443  167.9687 N.3     1  UNL1       -0.2698
     12 C         141.8772  141.7641  167.4221 C.3     1  UNL1        0.0938
     13 C         141.6211  142.3893  166.0829 C.3     1  UNL1        0.1081
     14 N         140.4103  141.9947  165.2903 N.pl3   1  UNL1       -0.3040
     15 C         139.4556  140.9749  165.8368 C.3     1  UNL1        0.1081
     16 C         139.7118  140.3497  167.1760 C.3     1  UNL1        0.0938
     17 C         142.3510  139.2021  169.4956 C.3     1  UNL1        0.0188
     18 C         141.1787  140.1190  169.3078 C.3     1  UNL1        0.0722
     19 S         140.4356  143.1986  157.5331 S.3     1  UNL1       -0.0777
     20 C         139.5545  144.0600  156.6778 C.3     1  UNL1        0.0462
     21 C         138.7756  142.7785  156.6462 C.3     1  UNL1        0.0113
     22 C         140.6394  145.0424  157.0064 C.3     1  UNL1        0.0121
     23 C         140.5728  146.4411  156.4688 C.3     1  UNL1        0.0207
     24 C         139.4212  146.8575  155.6024 C.3     1  UNL1        0.0754
     25 C         138.3364  145.8752  155.2738 C.3     1  UNL1        0.0207
     26 C         138.4030  144.4764  155.8114 C.3     1  UNL1        0.0121
     27 N         139.3546  148.2563  155.0647 N.am    1  UNL1       -0.2794
     28 C         139.8382  148.5495  153.6754 C.3     1  UNL1        0.1148
     29 C         138.8044  149.3618  155.9163 C.2     1  UNL1        0.2261
     30 C         138.7378  150.7605  155.3785 C.3     1  UNL1        0.0948
     31 O         138.3208  149.0685  157.3056 O.2     1  UNL1       -0.2749
@<TRIPOS>BOND
     1    17    18    1
     2    18    11    1
     3    11    12    1
     4    12    13    1
     5    13    14    1
     6    14     1    1
     7     1     2    2
     8     2     3    1
     9     3     4    2
    10     4     5    1
    11     5    19    1
    12    19    20    1
    13    20    21    1
    14    20    22    1
    15    22    23    1
    16    23    24    1
    17    24    27    1
    18    27    28    1
    19    27    29   am
    20    29    30    1
    21    29    31    2
    22    24    25    1
    23    25    26    1
    24     5     6    2
    25     6     7    1
    26     7     8    1
    27     8     9    2
    28     9    10    1
    29    14    15    1
    30    15    16    1
    31    16    11    1
    32     9     1    1
    33     7     3    1
    34    26    20    1
@<TRIPOS>MOLECULE
*****
 31 34 0 0 0
SMALL
GASTEIGER

@<TRIPOS>ATOM
      1 C         142.9525  138.0744  157.4327 C.2     1  UNL1        0.0596
      2 C         142.8314  137.9118  158.9190 C.2     1  UNL1        0.0324
      3 C         143.2318  139.0332  159.8312 C.2     1  UNL1        0.0889
      4 N         143.2240  139.1629  161.3255 N.2     1  UNL1       -0.2236
      5 C         143.7407  140.5270  161.6750 C.2     1  UNL1        0.1859
      6 N         144.0679  141.2404  160.3967 N.2     1  UNL1       -0.2387
      7 C         143.7534  140.3171  159.2571 C.3     1  UNL1        0.1679
      8 C         143.8745  140.4796  157.7709 C.2     1  UNL1        0.0164
      9 C         143.4741  139.3582  156.8587 C.2     1  UNL1        0.0690
     10 CL        143.5952  139.5208  155.3724 Cl      1  UNL1       -0.0812
     11 N         141.7513  134.7101  154.6960 N.3     1  UNL1       -0.2698
     12 C         143.1688  134.8178  155.1747 C.3     1  UNL1        0.0938
     13 C         143.5692  135.9392  156.0869 C.3     1  UNL1        0.1081
     14 N         142.5521  136.9529  156.5204 N.pl3   1  UNL1       -0.3040
     15 C         141.1346  136.8452  156.0418 C.3     1  UNL1        0.1081
     16 C         140.7342  135.7238  155.1296 C.3     1  UNL1        0.0938
     17 C         141.4819  133.7474  152.2980 C.3     1  UNL1        0.0188
     18 C         141.3508  133.5888  153.7839 C.3     1  UNL1        0.0722
     19 S         143.9019  141.0807  163.0598 S.3     1  UNL1       -0.0777
     20 C         143.4831  140.2652  164.2470 C.3     1  UNL1        0.0462
     21 C         144.9217  139.8533  164.1425 C.3     1  UNL1        0.0113
     22 C         142.1900  140.9603  163.9391 C.3     1  UNL1        0.0121
     23 C         140.9776  140.6968  164.7822 C.3     1  UNL1        0.0207
     24 C         141.0584  139.7383  165.9332 C.3     1  UNL1        0.0754
     25 C         142.3515  139.0433  166.2410 C.3     1  UNL1        0.0207
     26 C         143.5639  139.3067  165.3979 C.3     1  UNL1        0.0121
     27 N         139.8460  139.4749  166.7763 N.am    1  UNL1       -0.2794
     28 C         139.7486  140.0610  168.1536 C.3     1  UNL1        0.1148
     29 C         138.7311  138.6253  166.2422 C.2     1  UNL1        0.2261
     30 C         137.5188  138.3619  167.0853 C.3     1  UNL1        0.0948
     31 O         138.8286  138.0391  164.8649 O.2     1  UNL1       -0.2749
@<TRIPOS>BOND
     1    17    18    1
     2    18    11    1
     3    11    12    1
     4    12    13    1
     5    13    14    1
     6    14     1    1
     7     1     2    2
     8     2     3    1
     9     3     4    2
    10     4     5    1
    11     5    19    1
    12    19    20    1
    13    20    21    1
    14    20    22    1
    15    22    23    1
    16    23    24    1
    17    24    27    1
    18    27    28    1
    19    27    29   am
    20    29    30    1
    21    29    31    2
    22    24    25    1
    23    25    26    1
    24     5     6    2
    25     6     7    1
    26     7     8    1
    27     8     9    2
    28     9    10    1
    29    14    15    1
    30    15    16    1
    31    16    11    1
    32     9     1    1
    33     7     3    1
    34    26    20    1
@<TRIPOS>MOLECULE
*****
 31 34 0 0 0
SMALL
GASTEIGER

@<TRIPOS>ATOM
      1 C         138.8903  142.5731  157.7256 C.2     1  UNL1        0.0596
      2 C         138.9995  142.3483  159.2047 C.2     1  UNL1        0.0324
      3 C         139.6737  143.3707  160.0708 C.2     1  UNL1        0.0889
      4 N         139.9293  143.4232  161.5480 N.2     1  UNL1       -0.2236
      5 C         140.6522  144.7028  161.8480 C.2     1  UNL1        0.1859
      6 N         140.8434  145.4411  160.5563 N.2     1  UNL1       -0.2387
      7 C         140.2386  144.6177  159.4579 C.3     1  UNL1        0.1679
      8 C         140.1294  144.8425  157.9789 C.2     1  UNL1        0.0164
      9 C         139.4552  143.8201  157.1128 C.2     1  UNL1        0.0690
     10 CL        139.3460  144.0449  155.6337 Cl      1  UNL1       -0.0812
     11 N         136.8678  139.5059  155.1271 N.3     1  UNL1       -0.2698
     12 C         138.3477  139.4327  155.3604 C.3     1  UNL1        0.0938
     13 C         139.0219  140.4551  156.2265 C.3     1  UNL1        0.1081
     14 N         138.2161  141.5506  156.8594 N.pl3   1  UNL1       -0.3040
     15 C         136.7362  141.6238  156.6261 C.3     1  UNL1        0.1081
     16 C         136.0620  140.6014  155.7600 C.3     1  UNL1        0.0938
     17 C         137.0164  137.5501  153.4233 C.3     1  UNL1        0.0188
     18 C         136.1936  138.4836  154.2610 C.3     1  UNL1        0.0722
     19 S         141.1045  145.1634  163.2020 S.3     1  UNL1       -0.0777
     20 C         141.6367  144.1708  164.1927 C.3     1  UNL1        0.0462
     21 C         142.8978  144.4990  163.4499 C.3     1  UNL1        0.0113
     22 C         140.1907  144.1873  164.5915 C.3     1  UNL1        0.0121
     23 C         139.7149  143.3251  165.7230 C.3     1  UNL1        0.0207
     24 C         140.6851  142.4465  166.4558 C.3     1  UNL1        0.0754
     25 C         142.1309  142.4301  166.0570 C.3     1  UNL1        0.0207
     26 C         142.6068  143.2922  164.9254 C.3     1  UNL1        0.0121
     27 N         140.2092  141.5844  167.5873 N.am    1  UNL1       -0.2794
     28 C         139.7183  140.1934  167.3152 C.3     1  UNL1        0.1148
     29 C         140.2243  142.1133  168.9909 C.2     1  UNL1        0.2261
     30 C         139.7484  141.2511  170.1224 C.3     1  UNL1        0.0948
     31 O         140.7152  143.5043  169.2630 O.2     1  UNL1       -0.2749
@<TRIPOS>BOND
     1    17    18    1
     2    18    11    1
     3    11    12    1
     4    12    13    1
     5    13    14    1
     6    14     1    1
     7     1     2    2
     8     2     3    1
     9     3     4    2
    10     4     5    1
    11     5    19    1
    12    19    20    1
    13    20    21    1
    14    20    22    1
    15    22    23    1
    16    23    24    1
    17    24    27    1
    18    27    28    1
    19    27    29   am
    20    29    30    1
    21    29    31    2
    22    24    25    1
    23    25    26    1
    24     5     6    2
    25     6     7    1
    26     7     8    1
    27     8     9    2
    28     9    10    1
    29    14    15    1
    30    15    16    1
    31    16    11    1
    32     9     1    1
    33     7     3    1
    34    26    20    1
@<TRIPOS>MOLECULE
*****
 31 34 0 0 0
SMALL
GASTEIGER

@<TRIPOS>ATOM
      1 C         142.4297  140.1607  163.6910 C.2     1  UNL1        0.0596
      2 C         141.6934  140.5062  162.4305 C.2     1  UNL1        0.0324
      3 C         142.2906  140.1685  161.0966 C.2     1  UNL1        0.0889
      4 N         141.8022  140.3839  159.6948 N.2     1  UNL1       -0.2236
      5 C         142.8337  139.8339  158.7550 C.2     1  UNL1        0.1859
      6 N         143.9597  139.2785  159.5759 N.2     1  UNL1       -0.2387
      7 C         143.6240  139.4854  161.0231 C.3     1  UNL1        0.1679
      8 C         144.3602  139.1399  162.2835 C.2     1  UNL1        0.0164
      9 C         143.7630  139.4776  163.6174 C.2     1  UNL1        0.0690
     10 CL        144.4993  139.1321  164.8779 Cl      1  UNL1       -0.0812
     11 N         140.6382  141.1738  167.6928 N.3     1  UNL1       -0.2698
     12 C         141.6425  142.0948  167.0659 C.3     1  UNL1        0.0938
     13 C         142.2397  141.7571  165.7320 C.3     1  UNL1        0.1081
     14 N         141.8325  140.4984  165.0250 N.pl3   1  UNL1       -0.3040
     15 C         140.8282  139.5774  165.6519 C.3     1  UNL1        0.1081
     16 C         140.2311  139.9151  166.9858 C.3     1  UNL1        0.0938
     17 C         139.2176  140.4937  169.7590 C.3     1  UNL1        0.0188
     18 C         140.0410  141.5114  169.0267 C.3     1  UNL1        0.0722
     19 S         142.7535  139.8383  157.2571 S.3     1  UNL1       -0.0777
     20 C         143.2761  138.6702  156.4745 C.3     1  UNL1        0.0462
     21 C         144.2617  139.7226  156.0611 C.3     1  UNL1        0.0113
     22 C         142.1089  138.0235  157.1598 C.3     1  UNL1        0.0121
     23 C         141.8066  136.5741  156.9189 C.3     1  UNL1        0.0207
     24 C         142.6716  135.7715  155.9926 C.3     1  UNL1        0.0754
     25 C         143.8386  136.4183  155.3075 C.3     1  UNL1        0.0207
     26 C         144.1409  137.8676  155.5484 C.3     1  UNL1        0.0121
     27 N         142.3693  134.3222  155.7517 N.am    1  UNL1       -0.2794
     28 C         141.5088  133.9184  154.5914 C.3     1  UNL1        0.1148
     29 C         142.9275  133.2766  156.6712 C.2     1  UNL1        0.2261
     30 C         142.6251  131.8273  156.4302 C.3     1  UNL1        0.0948
     31 O         143.7879  133.6805  157.8315 O.2     1  UNL1       -0.2749
@<TRIPOS>BOND
     1    17    18    1
     2    18    11    1
     3    11    12    1
     4    12    13    1
     5    13    14    1
     6    14     1    1
     7     1     2    2
     8     2     3    1
     9     3     4    2
    10     4     5    1
    11     5    19    1
    12    19    20    1
    13    20    21    1
    14    20    22    1
    15    22    23    1
    16    23    24    1
    17    24    27    1
    18    27    28    1
    19    27    29   am
    20    29    30    1
    21    29    31    2
    22    24    25    1
    23    25    26    1
    24     5     6    2
    25     6     7    1
    26     7     8    1
    27     8     9    2
    28     9    10    1
    29    14    15    1
    30    15    16    1
    31    16    11    1
    32     9     1    1
    33     7     3    1
    34    26    20    1
@<TRIPOS>MOLECULE
*****
 31 34 0 0 0
SMALL
GASTEIGER

@<TRIPOS>ATOM
      1 C         142.7143  140.3694  158.4500 C.2     1  UNL1        0.0596
      2 C         141.7970  140.7614  159.5704 C.2     1  UNL1        0.0324
      3 C         142.1605  141.9034  160.4725 C.2     1  UNL1        0.0889
      4 N         141.4607  142.5139  161.6504 N.2     1  UNL1       -0.2236
      5 C         142.3088  143.6412  162.1601 C.2     1  UNL1        0.1859
      6 N         143.5327  143.7274  161.2972 N.2     1  UNL1       -0.2387
      7 C         143.4411  142.6533  160.2542 C.3     1  UNL1        0.1679
      8 C         144.3582  142.2613  159.1338 C.2     1  UNL1        0.0164
      9 C         143.9948  141.1193  158.2318 C.2     1  UNL1        0.0690
     10 CL        144.9120  140.7273  157.1114 Cl      1  UNL1       -0.0812
     11 N         141.6239  136.9433  155.7438 N.3     1  UNL1       -0.2698
     12 C         141.2363  138.3443  155.3735 C.3     1  UNL1        0.0938
     13 C         141.5997  139.4863  156.2756 C.3     1  UNL1        0.1081
     14 N         142.3508  139.2273  157.5479 N.pl3   1  UNL1       -0.3040
     15 C         142.7384  137.8264  157.9182 C.3     1  UNL1        0.1081
     16 C         142.3750  136.6844  157.0161 C.3     1  UNL1        0.0938
     17 C         142.2302  135.3321  153.7979 C.3     1  UNL1        0.0188
     18 C         141.2605  135.8013  154.8418 C.3     1  UNL1        0.0722
     19 S         141.9891  144.5269  163.3278 S.3     1  UNL1       -0.0777
     20 C         141.2405  143.9753  164.5047 C.3     1  UNL1        0.0462
     21 C         140.1802  144.8541  163.9102 C.3     1  UNL1        0.0113
     22 C         142.5608  143.2880  164.6905 C.3     1  UNL1        0.0121
     23 C         142.7643  142.3543  165.8467 C.3     1  UNL1        0.0207
     24 C         141.6473  142.1079  166.8172 C.3     1  UNL1        0.0754
     25 C         140.3271  142.7952  166.6314 C.3     1  UNL1        0.0207
     26 C         140.1236  143.7289  165.4752 C.3     1  UNL1        0.0121
     27 N         141.8508  141.1742  167.9734 N.am    1  UNL1       -0.2794
     28 C         141.0493  139.9097  168.0663 C.3     1  UNL1        0.1148
     29 C         142.8557  141.5050  169.0368 C.2     1  UNL1        0.2261
     30 C         143.0591  140.5713  170.1930 C.3     1  UNL1        0.0948
     31 O         143.6572  142.7695  168.9440 O.2     1  UNL1       -0.2749
@<TRIPOS>BOND
     1    17    18    1
     2    18    11    1
     3    11    12    1
     4    12    13    1
     5    13    14    1
     6    14     1    1
     7     1     2    2
     8     2     3    1
     9     3     4    2
    10     4     5    1
    11     5    19    1
    12    19    20    1
    13    20    21    1
    14    20    22    1
    15    22    23    1
    16    23    24    1
    17    24    27    1
    18    27    28    1
    19    27    29   am
    20    29    30    1
    21    29    31    2
    22    24    25    1
    23    25    26    1
    24     5     6    2
    25     6     7    1
    26     7     8    1
    27     8     9    2
    28     9    10    1
    29    14    15    1
    30    15    16    1
    31    16    11    1
    32     9     1    1
    33     7     3    1
    34    26    20    1
@<TRIPOS>MOLECULE
*****
 31 34 0 0 0
SMALL
GASTEIGER

@<TRIPOS>ATOM
      1 C         142.1249  141.4756  159.0093 C.2     1  UNL1        0.0596
      2 C         141.1432  141.2145  160.1131 C.2     1  UNL1        0.0324
      3 C         141.3943  140.1077  161.0938 C.2     1  UNL1        0.0889
      4 N         140.6123  139.6180  162.2764 N.2     1  UNL1       -0.2236
      5 C         141.3616  138.4696  162.8843 C.2     1  UNL1        0.1859
      6 N         142.6068  138.2495  162.0774 N.2     1  UNL1       -0.2387
      7 C         142.6271  139.2620  160.9708 C.3     1  UNL1        0.1679
      8 C         143.6087  139.5230  159.8671 C.2     1  UNL1        0.0164
      9 C         143.3576  140.6298  158.8864 C.2     1  UNL1        0.0690
     10 CL        144.3393  140.8908  157.7826 Cl      1  UNL1       -0.0812
     11 N         141.3717  144.7961  156.0670 N.3     1  UNL1       -0.2698
     12 C         142.1386  145.0699  157.3267 C.3     1  UNL1        0.0938
     13 C         142.3897  143.9631  158.3075 C.3     1  UNL1        0.1081
     14 N         141.8739  142.5824  158.0285 N.pl3   1  UNL1       -0.3040
     15 C         141.1070  142.3086  156.7688 C.3     1  UNL1        0.1081
     16 C         140.8559  143.4155  155.7880 C.3     1  UNL1        0.0938
     17 C         140.1038  146.9617  155.3944 C.3     1  UNL1        0.0188
     18 C         141.1206  145.9028  155.0862 C.3     1  UNL1        0.0722
     19 S         140.9399  137.6798  164.0878 S.3     1  UNL1       -0.0777
     20 C         140.0707  138.3131  165.1335 C.3     1  UNL1        0.0462
     21 C         139.0374  137.5391  164.3698 C.3     1  UNL1        0.0113
     22 C         141.4058  138.8671  165.5341 C.3     1  UNL1        0.0121
     23 C         141.5130  139.7856  166.7152 C.3     1  UNL1        0.0207
     24 C         140.2849  140.1501  167.4957 C.3     1  UNL1        0.0754
     25 C         138.9499  139.5960  167.0951 C.3     1  UNL1        0.0207
     26 C         138.8427  138.6775  165.9140 C.3     1  UNL1        0.0121
     27 N         140.3921  141.0686  168.6767 N.am    1  UNL1       -0.2794
     28 C         140.4631  140.5017  170.0636 C.3     1  UNL1        0.1148
     29 C         140.4282  142.5540  168.4709 C.2     1  UNL1        0.2261
     30 C         140.5354  143.4724  169.6520 C.3     1  UNL1        0.0948
     31 O         140.3571  143.1209  167.0839 O.2     1  UNL1       -0.2749
@<TRIPOS>BOND
     1    17    18    1
     2    18    11    1
     3    11    12    1
     4    12    13    1
     5    13    14    1
     6    14     1    1
     7     1     2    2
     8     2     3    1
     9     3     4    2
    10     4     5    1
    11     5    19    1
    12    19    20    1
    13    20    21    1
    14    20    22    1
    15    22    23    1
    16    23    24    1
    17    24    27    1
    18    27    28    1
    19    27    29   am
    20    29    30    1
    21    29    31    2
    22    24    25    1
    23    25    26    1
    24     5     6    2
    25     6     7    1
    26     7     8    1
    27     8     9    2
    28     9    10    1
    29    14    15    1
    30    15    16    1
    31    16    11    1
    32     9     1    1
    33     7     3    1
    34    26    20    1
@<TRIPOS>MOLECULE
*****
 31 34 0 0 0
SMALL
GASTEIGER

@<TRIPOS>ATOM
      1 C         138.9560  140.4414  158.8247 C.2     1  UNL1        0.0596
      2 C         138.7936  140.6949  160.2942 C.2     1  UNL1        0.0324
      3 C         139.2244  139.6558  161.2866 C.2     1  UNL1        0.0889
      4 N         139.1885  139.6238  162.7858 N.2     1  UNL1       -0.2236
      5 C         139.7594  138.3115  163.2352 C.2     1  UNL1        0.1859
      6 N         140.1481  137.5325  162.0137 N.2     1  UNL1       -0.2387
      7 C         139.8174  138.3633  160.8094 C.3     1  UNL1        0.1679
      8 C         139.9797  138.1098  159.3399 C.2     1  UNL1        0.0164
      9 C         139.5490  139.1489  158.3476 C.2     1  UNL1        0.0690
     10 CL        139.7113  138.8954  156.8780 Cl      1  UNL1       -0.0812
     11 N         137.6637  143.5586  155.8476 N.3     1  UNL1       -0.2698
     12 C         136.8219  142.3367  156.0671 C.3     1  UNL1        0.0938
     13 C         137.2527  141.2976  157.0595 C.3     1  UNL1        0.1081
     14 N         138.5252  141.4805  157.8323 N.pl3   1  UNL1       -0.3040
     15 C         139.3669  142.7025  157.6128 C.3     1  UNL1        0.1081
     16 C         138.9362  143.7416  156.6204 C.3     1  UNL1        0.0938
     17 C         136.7329  144.1822  153.5035 C.3     1  UNL1        0.0188
     18 C         137.2330  144.5977  154.8553 C.3     1  UNL1        0.0722
     19 S         139.9144  137.8579  164.6565 S.3     1  UNL1       -0.0777
     20 C         140.8368  138.5941  165.5824 C.3     1  UNL1        0.0462
     21 C         141.8406  137.8564  164.7468 C.3     1  UNL1        0.0113
     22 C         139.5126  139.0761  166.0964 C.3     1  UNL1        0.0121
     23 C         139.4594  140.0380  167.2461 C.3     1  UNL1        0.0207
     24 C         140.7305  140.5180  167.8818 C.3     1  UNL1        0.0754
     25 C         142.0546  140.0360  167.3678 C.3     1  UNL1        0.0207
     26 C         142.1078  139.0740  166.2181 C.3     1  UNL1        0.0121
     27 N         140.6773  141.4800  169.0315 N.am    1  UNL1       -0.2794
     28 C         140.8515  140.9812  170.4354 C.3     1  UNL1        0.1148
     29 C         140.4498  142.9407  168.7774 C.2     1  UNL1        0.2261
     30 C         140.3966  143.9026  169.9272 C.3     1  UNL1        0.0948
     31 O         140.2756  143.4395  167.3735 O.2     1  UNL1       -0.2749
@<TRIPOS>BOND
     1    17    18    1
     2    18    11    1
     3    11    12    1
     4    12    13    1
     5    13    14    1
     6    14     1    1
     7     1     2    2
     8     2     3    1
     9     3     4    2
    10     4     5    1
    11     5    19    1
    12    19    20    1
    13    20    21    1
    14    20    22    1
    15    22    23    1
    16    23    24    1
    17    24    27    1
    18    27    28    1
    19    27    29   am
    20    29    30    1
    21    29    31    2
    22    24    25    1
    23    25    26    1
    24     5     6    2
    25     6     7    1
    26     7     8    1
    27     8     9    2
    28     9    10    1
    29    14    15    1
    30    15    16    1
    31    16    11    1
    32     9     1    1
    33     7     3    1
    34    26    20    1
