@<TRIPOS>MOLECULE
*****
 32 35 0 0 0
SMALL
GASTEIGER

@<TRIPOS>ATOM
      1 C         141.3181  140.0273  168.1016 C.3     1  UNL1        0.0679
      2 C         140.3780  140.0404  169.2704 C.3     1  UNL1        0.0177
      3 C         141.7807  139.5377  169.4418 C.3     1  UNL1        0.0845
      4 C         140.4206  140.5893  167.0391 C.ar    1  UNL1       -0.0164
      5 C         139.3513  139.7317  166.4299 C.ar    1  UNL1       -0.0017
      6 C         138.4539  140.2937  165.3675 C.ar    1  UNL1        0.0316
      7 C         138.6257  141.7132  164.9143 C.ar    1  UNL1        0.1674
      8 F         137.7283  142.2752  163.8518 F       1  UNL1       -0.2018
      9 C         139.6951  142.5708  165.5235 C.ar    1  UNL1        0.1671
     10 F         139.8669  143.9903  165.0703 F       1  UNL1       -0.2018
     11 C         140.5925  142.0088  166.5860 C.ar    1  UNL1        0.0278
     12 C         142.8578  138.9646  170.3146 C.2     1  UNL1        0.2271
     13 O         143.7401  139.8771  171.1140 O.2     1  UNL1       -0.2747
     14 N         143.0526  137.4791  170.3879 N.am    1  UNL1       -0.2693
     15 H         142.4736  136.8802  169.8632 H       1  UNL1        0.1563
     16 C         144.1296  136.9061  171.2605 C.ar    1  UNL1        0.1343
     17 C         144.1689  135.4315  171.5330 C.ar    1  UNL1        0.0368
     18 C         145.2459  134.8586  172.4057 C.ar    1  UNL1        0.0341
     19 C         146.2837  135.7600  173.0060 C.ar    1  UNL1        0.1593
     20 F         147.3607  135.1870  173.8787 F       1  UNL1       -0.2025
     21 C         146.2444  137.2345  172.7335 C.ar    1  UNL1        0.1298
     22 N         145.1674  137.8076  171.8608 N.ar    1  UNL1       -0.2267
     23 C         142.5698  139.8189  167.3018 C.3     1  UNL1        0.2098
     24 O         142.7289  138.5836  166.4660 O.3     1  UNL1       -0.4723
     25 C         143.9721  139.0591  160.6155 C.3     1  UNL1        0.0736
     26 C         143.6613  138.9403  162.0781 C.ar    1  UNL1        0.1394
     27 N         144.5003  139.6700  163.0849 N.ar    1  UNL1       -0.2260
     28 C         144.1895  139.5511  164.5475 C.ar    1  UNL1        0.1382
     29 C         143.0397  138.7025  165.0034 C.ar    1  UNL1        0.1711
     30 C         142.2008  137.9727  163.9966 C.ar    1  UNL1        0.0960
     31 C         141.0510  137.1240  164.4525 C.3     1  UNL1        0.0555
     32 N         142.5116  138.0916  162.5340 N.ar    1  UNL1       -0.2319
@<TRIPOS>BOND
     1    25    26    1
     2    26    27   ar
     3    27    28   ar
     4    28    29   ar
     5    29    24    1
     6    24    23    1
     7     1    23    1
     8     1     4    1
     9     4     5   ar
    10     5     6   ar
    11     6     7   ar
    12     7     8    1
    13     7     9   ar
    14     9    10    1
    15     9    11   ar
    16     1     2    1
    17     2     3    1
    18     3    12    1
    19    12    13    2
    20    12    14   am
    21    14    16    1
    22    16    17   ar
    23    17    18   ar
    24    18    19   ar
    25    19    20    1
    26    19    21   ar
    27    21    22   ar
    28    29    30   ar
    29    30    31    1
    30    30    32   ar
    31    32    26   ar
    32     3     1    1
    33    22    16   ar
    34    11     4   ar
    35    14    15    1
@<TRIPOS>MOLECULE
*****
 32 35 0 0 0
SMALL
GASTEIGER

@<TRIPOS>ATOM
      1 C         141.0926  142.7942  165.7590 C.3     1  UNL1        0.0679
      2 C         142.4644  142.2658  165.4605 C.3     1  UNL1        0.0177
      3 C         141.7762  143.1642  164.4761 C.3     1  UNL1        0.0845
      4 C         140.8571  142.1648  167.1000 C.ar    1  UNL1       -0.0164
      5 C         141.0963  140.6965  167.2917 C.ar    1  UNL1       -0.0017
      6 C         140.8607  140.0670  168.6327 C.ar    1  UNL1        0.0316
      7 C         140.3860  140.9059  169.7820 C.ar    1  UNL1        0.1674
      8 F         140.1504  140.2765  171.1230 F       1  UNL1       -0.2018
      9 C         140.1468  142.3743  169.5903 C.ar    1  UNL1        0.1671
     10 F         139.6720  143.2132  170.7395 F       1  UNL1       -0.2018
     11 C         140.3823  143.0037  168.2492 C.ar    1  UNL1        0.0278
     12 C         141.7735  143.8965  163.1669 C.2     1  UNL1        0.2271
     13 O         142.1100  145.3577  163.1242 O.2     1  UNL1       -0.2747
     14 N         141.4344  143.1676  161.9005 N.am    1  UNL1       -0.2693
     15 H         141.2136  142.2086  161.9286 H       1  UNL1        0.1563
     16 C         141.4317  143.8999  160.5914 C.ar    1  UNL1        0.1343
     17 C         140.2670  144.7696  160.2209 C.ar    1  UNL1        0.0368
     18 C         140.2644  145.5018  158.9118 C.ar    1  UNL1        0.0341
     19 C         141.4263  145.3644  157.9732 C.ar    1  UNL1        0.1593
     20 F         141.4236  146.0966  156.6641 F       1  UNL1       -0.2025
     21 C         142.5909  144.4946  158.3437 C.ar    1  UNL1        0.1298
     22 N         142.5936  143.7624  159.6528 N.ar    1  UNL1       -0.2267
     23 C         139.8027  143.5413  165.5916 C.3     1  UNL1        0.2098
     24 O         138.5189  142.7885  165.4046 O.3     1  UNL1       -0.4723
     25 C         137.4428  139.9289  160.2408 C.3     1  UNL1        0.0736
     26 C         137.7118  140.6438  161.5318 C.ar    1  UNL1        0.1394
     27 N         137.8123  142.1403  161.5536 N.ar    1  UNL1       -0.2260
     28 C         138.0813  142.8552  162.8445 C.ar    1  UNL1        0.1382
     29 C         138.2498  142.0736  164.1136 C.ar    1  UNL1        0.1711
     30 C         138.1493  140.5772  164.0918 C.ar    1  UNL1        0.0960
     31 C         138.3178  139.7956  165.3610 C.3     1  UNL1        0.0555
     32 N         137.8803  139.8623  162.8009 N.ar    1  UNL1       -0.2319
@<TRIPOS>BOND
     1    25    26    1
     2    26    27   ar
     3    27    28   ar
     4    28    29   ar
     5    29    24    1
     6    24    23    1
     7     1    23    1
     8     1     4    1
     9     4     5   ar
    10     5     6   ar
    11     6     7   ar
    12     7     8    1
    13     7     9   ar
    14     9    10    1
    15     9    11   ar
    16     1     2    1
    17     2     3    1
    18     3    12    1
    19    12    13    2
    20    12    14   am
    21    14    16    1
    22    16    17   ar
    23    17    18   ar
    24    18    19   ar
    25    19    20    1
    26    19    21   ar
    27    21    22   ar
    28    29    30   ar
    29    30    31    1
    30    30    32   ar
    31    32    26   ar
    32     3     1    1
    33    22    16   ar
    34    11     4   ar
    35    14    15    1
@<TRIPOS>MOLECULE
*****
 32 35 0 0 0
SMALL
GASTEIGER

@<TRIPOS>ATOM
      1 C         142.8140  142.3139  165.3395 C.3     1  UNL1        0.0679
      2 C         144.1307  141.8461  164.7941 C.3     1  UNL1        0.0177
      3 C         143.2707  142.7722  163.9863 C.3     1  UNL1        0.0845
      4 C         142.8147  141.6080  166.6630 C.ar    1  UNL1       -0.0164
      5 C         142.7078  140.1127  166.7156 C.ar    1  UNL1       -0.0017
      6 C         142.7084  139.4068  168.0391 C.ar    1  UNL1        0.0316
      7 C         142.8160  140.1961  169.3100 C.ar    1  UNL1        0.1674
      8 F         142.8166  139.4902  170.6335 F       1  UNL1       -0.2018
      9 C         142.9229  141.6914  169.2575 C.ar    1  UNL1        0.1671
     10 F         143.0304  142.4807  170.5284 F       1  UNL1       -0.2018
     11 C         142.9222  142.3973  167.9340 C.ar    1  UNL1        0.0278
     12 C         143.0379  143.5715  162.7384 C.2     1  UNL1        0.2271
     13 O         143.7706  144.8632  162.5275 O.2     1  UNL1       -0.2747
     14 N         142.0722  143.0791  161.7016 N.am    1  UNL1       -0.2693
     15 H         141.5912  142.2313  161.8401 H       1  UNL1        0.1563
     16 C         141.8393  143.8783  160.4539 C.ar    1  UNL1        0.1343
     17 C         140.6447  144.7800  160.3527 C.ar    1  UNL1        0.0368
     18 C         140.4119  145.5792  159.1049 C.ar    1  UNL1        0.0341
     19 C         141.3735  145.4768  157.9583 C.ar    1  UNL1        0.1593
     20 F         141.1406  146.2761  156.7105 F       1  UNL1       -0.2025
     21 C         142.5680  144.5752  158.0595 C.ar    1  UNL1        0.1298
     22 N         142.8009  143.7760  159.3072 N.ar    1  UNL1       -0.2267
     23 C         141.4971  143.0269  165.4253 C.3     1  UNL1        0.2098
     24 O         140.2560  142.2684  165.7917 O.3     1  UNL1       -0.4723
     25 C         137.9673  138.2390  161.9805 C.3     1  UNL1        0.0736
     26 C         138.5395  139.2463  162.9333 C.ar    1  UNL1        0.1394
     27 N         139.1000  140.5367  162.4132 N.ar    1  UNL1       -0.2260
     28 C         139.6721  141.5441  163.3660 C.ar    1  UNL1        0.1382
     29 C         139.6838  141.2611  164.8389 C.ar    1  UNL1        0.1711
     30 C         139.1233  139.9706  165.3591 C.ar    1  UNL1        0.0960
     31 C         139.1350  139.6875  166.8321 C.3     1  UNL1        0.0555
     32 N         138.5512  138.9633  164.4063 N.ar    1  UNL1       -0.2319
@<TRIPOS>BOND
     1    25    26    1
     2    26    27   ar
     3    27    28   ar
     4    28    29   ar
     5    29    24    1
     6    24    23    1
     7     1    23    1
     8     1     4    1
     9     4     5   ar
    10     5     6   ar
    11     6     7   ar
    12     7     8    1
    13     7     9   ar
    14     9    10    1
    15     9    11   ar
    16     1     2    1
    17     2     3    1
    18     3    12    1
    19    12    13    2
    20    12    14   am
    21    14    16    1
    22    16    17   ar
    23    17    18   ar
    24    18    19   ar
    25    19    20    1
    26    19    21   ar
    27    21    22   ar
    28    29    30   ar
    29    30    31    1
    30    30    32   ar
    31    32    26   ar
    32     3     1    1
    33    22    16   ar
    34    11     4   ar
    35    14    15    1
@<TRIPOS>MOLECULE
*****
 32 35 0 0 0
SMALL
GASTEIGER

@<TRIPOS>ATOM
      1 C         140.4095  142.7156  165.4625 C.3     1  UNL1        0.0679
      2 C         138.9841  142.7864  165.0006 C.3     1  UNL1        0.0177
      3 C         140.0818  143.3231  164.1307 C.3     1  UNL1        0.0845
      4 C         140.2191  142.0526  166.7945 C.ar    1  UNL1       -0.0164
      5 C         139.7034  140.6458  166.8652 C.ar    1  UNL1       -0.0017
      6 C         139.5130  139.9828  168.1972 C.ar    1  UNL1        0.0316
      7 C         139.8382  140.7267  169.4584 C.ar    1  UNL1        0.1674
      8 F         139.6478  140.0638  170.7904 F       1  UNL1       -0.2018
      9 C         140.3538  142.1335  169.3878 C.ar    1  UNL1        0.1671
     10 F         140.6790  142.8774  170.6490 F       1  UNL1       -0.2018
     11 C         140.5443  142.7965  168.0558 C.ar    1  UNL1        0.0278
     12 C         140.5266  143.9838  162.8596 C.2     1  UNL1        0.2271
     13 O         141.1340  145.3547  162.8995 O.2     1  UNL1       -0.2747
     14 N         140.3638  143.2736  161.5484 N.am    1  UNL1       -0.2693
     15 H         139.9651  142.3738  161.5222 H       1  UNL1        0.1563
     16 C         140.8085  143.9342  160.2773 C.ar    1  UNL1        0.1343
     17 C         142.1021  143.5297  159.6346 C.ar    1  UNL1        0.0368
     18 C         142.5467  144.1904  158.3634 C.ar    1  UNL1        0.0341
     19 C         141.6978  145.2555  157.7350 C.ar    1  UNL1        0.1593
     20 F         142.1425  145.9161  156.4638 F       1  UNL1       -0.2025
     21 C         140.4042  145.6598  158.3777 C.ar    1  UNL1        0.1298
     22 N         139.9596  144.9992  159.6488 N.ar    1  UNL1       -0.2267
     23 C         141.9010  142.8750  165.4617 C.3     1  UNL1        0.2098
     24 O         142.7843  141.6680  165.5748 O.3     1  UNL1       -0.4723
     25 C         143.5576  138.0620  160.8421 C.3     1  UNL1        0.0736
     26 C         143.3643  138.9635  162.0253 C.ar    1  UNL1        0.1394
     27 N         143.3761  140.4523  161.8436 N.ar    1  UNL1       -0.2260
     28 C         143.1827  141.3539  163.0268 C.ar    1  UNL1        0.1382
     29 C         142.9776  140.7665  164.3917 C.ar    1  UNL1        0.1711
     30 C         142.9659  139.2776  164.5733 C.ar    1  UNL1        0.0960
     31 C         142.7608  138.6902  165.9383 C.3     1  UNL1        0.0555
     32 N         143.1592  138.3761  163.3902 N.ar    1  UNL1       -0.2319
@<TRIPOS>BOND
     1    25    26    1
     2    26    27   ar
     3    27    28   ar
     4    28    29   ar
     5    29    24    1
     6    24    23    1
     7     1    23    1
     8     1     4    1
     9     4     5   ar
    10     5     6   ar
    11     6     7   ar
    12     7     8    1
    13     7     9   ar
    14     9    10    1
    15     9    11   ar
    16     1     2    1
    17     2     3    1
    18     3    12    1
    19    12    13    2
    20    12    14   am
    21    14    16    1
    22    16    17   ar
    23    17    18   ar
    24    18    19   ar
    25    19    20    1
    26    19    21   ar
    27    21    22   ar
    28    29    30   ar
    29    30    31    1
    30    30    32   ar
    31    32    26   ar
    32     3     1    1
    33    22    16   ar
    34    11     4   ar
    35    14    15    1
@<TRIPOS>MOLECULE
*****
 32 35 0 0 0
SMALL
GASTEIGER

@<TRIPOS>ATOM
      1 C         140.6218  141.8784  165.7016 C.3     1  UNL1        0.0679
      2 C         141.2865  140.5527  165.4764 C.3     1  UNL1        0.0177
      3 C         140.3502  141.1071  164.4441 C.3     1  UNL1        0.0845
      4 C         141.1932  142.2319  167.0427 C.ar    1  UNL1       -0.0164
      5 C         142.6377  141.9562  167.3387 C.ar    1  UNL1       -0.0017
      6 C         143.2091  142.3097  168.6798 C.ar    1  UNL1        0.0316
      7 C         142.3362  142.9388  169.7248 C.ar    1  UNL1        0.1674
      8 F         142.9076  143.2923  171.0659 F       1  UNL1       -0.2018
      9 C         140.8917  143.2144  169.4288 C.ar    1  UNL1        0.1671
     10 F         140.0187  143.8435  170.4738 F       1  UNL1       -0.2018
     11 C         140.3203  142.8610  168.0877 C.ar    1  UNL1        0.0278
     12 C         139.6527  140.9819  163.1220 C.2     1  UNL1        0.2271
     13 O         138.1932  140.6389  163.0734 O.2     1  UNL1       -0.2747
     14 N         140.4147  141.1997  161.8484 N.am    1  UNL1       -0.2693
     15 H         141.3726  141.4248  161.8803 H       1  UNL1        0.1563
     16 C         139.7173  141.0745  160.5264 C.ar    1  UNL1        0.1343
     17 C         139.7916  139.7884  159.7580 C.ar    1  UNL1        0.0368
     18 C         139.0941  139.6633  158.4359 C.ar    1  UNL1        0.0341
     19 C         138.3225  140.8243  157.8821 C.ar    1  UNL1        0.1593
     20 F         137.6251  140.6991  156.5601 F       1  UNL1       -0.2025
     21 C         138.2483  142.1103  158.6505 C.ar    1  UNL1        0.1298
     22 N         138.9457  142.2355  159.9726 N.ar    1  UNL1       -0.2267
     23 C         139.7586  143.0813  165.4610 C.3     1  UNL1        0.2098
     24 O         140.3761  144.3666  164.9957 O.3     1  UNL1       -0.4723
     25 C         141.1843  145.3570  159.1334 C.3     1  UNL1        0.0736
     26 C         140.9822  145.1094  160.5990 C.ar    1  UNL1        0.1394
     27 N         139.6389  145.3489  161.2219 N.ar    1  UNL1       -0.2260
     28 C         139.4369  145.1013  162.6874 C.ar    1  UNL1        0.1382
     29 C         140.5782  144.6142  163.5301 C.ar    1  UNL1        0.1711
     30 C         141.9215  144.3747  162.9072 C.ar    1  UNL1        0.0960
     31 C         143.0629  143.8876  163.7499 C.3     1  UNL1        0.0555
     32 N         142.1235  144.6223  161.4416 N.ar    1  UNL1       -0.2319
@<TRIPOS>BOND
     1    25    26    1
     2    26    27   ar
     3    27    28   ar
     4    28    29   ar
     5    29    24    1
     6    24    23    1
     7     1    23    1
     8     1     4    1
     9     4     5   ar
    10     5     6   ar
    11     6     7   ar
    12     7     8    1
    13     7     9   ar
    14     9    10    1
    15     9    11   ar
    16     1     2    1
    17     2     3    1
    18     3    12    1
    19    12    13    2
    20    12    14   am
    21    14    16    1
    22    16    17   ar
    23    17    18   ar
    24    18    19   ar
    25    19    20    1
    26    19    21   ar
    27    21    22   ar
    28    29    30   ar
    29    30    31    1
    30    30    32   ar
    31    32    26   ar
    32     3     1    1
    33    22    16   ar
    34    11     4   ar
    35    14    15    1
@<TRIPOS>MOLECULE
*****
 32 35 0 0 0
SMALL
GASTEIGER

@<TRIPOS>ATOM
      1 C         140.0565  141.2614  166.2817 C.3     1  UNL1        0.0679
      2 C         140.2936  142.7270  166.0680 C.3     1  UNL1        0.0177
      3 C         139.6562  141.9051  164.9873 C.3     1  UNL1        0.0845
      4 C         140.6054  141.1083  167.6692 C.ar    1  UNL1       -0.0164
      5 C         139.7862  140.4340  168.7296 C.ar    1  UNL1       -0.0017
      6 C         140.3351  140.2808  170.1171 C.ar    1  UNL1        0.0316
      7 C         141.7030  140.8019  170.4443 C.ar    1  UNL1        0.1674
      8 F         142.2519  140.6488  171.8318 F       1  UNL1       -0.2018
      9 C         142.5222  141.4762  169.3839 C.ar    1  UNL1        0.1671
     10 F         143.8901  141.9973  169.7111 F       1  UNL1       -0.2018
     11 C         141.9733  141.6293  167.9964 C.ar    1  UNL1        0.0278
     12 C         139.0570  141.8022  163.6159 C.2     1  UNL1        0.2271
     13 O         137.5957  142.0734  163.4136 O.2     1  UNL1       -0.2747
     14 N         139.9192  141.4280  162.4469 N.am    1  UNL1       -0.2693
     15 H         140.8784  141.2499  162.5797 H       1  UNL1        0.1563
     16 C         139.3202  141.3250  161.0757 C.ar    1  UNL1        0.1343
     17 C         139.0265  139.9779  160.4846 C.ar    1  UNL1        0.0368
     18 C         138.4274  139.8751  159.1133 C.ar    1  UNL1        0.0341
     19 C         138.1219  141.1192  158.3330 C.ar    1  UNL1        0.1593
     20 F         137.5229  141.0162  156.9617 F       1  UNL1       -0.2025
     21 C         138.4156  142.4661  158.9241 C.ar    1  UNL1        0.1298
     22 N         139.0147  142.5691  160.2953 N.ar    1  UNL1       -0.2267
     23 C         139.6287  139.8489  166.0134 C.3     1  UNL1        0.2098
     24 O         140.6598  138.7760  165.8248 O.3     1  UNL1       -0.4723
     25 C         142.8586  137.6559  160.3558 C.3     1  UNL1        0.0736
     26 C         142.3089  137.9359  161.7230 C.ar    1  UNL1        0.1394
     27 N         140.9704  137.3876  162.1200 N.ar    1  UNL1       -0.2260
     28 C         140.4207  137.6676  163.4873 C.ar    1  UNL1        0.1382
     29 C         141.2095  138.4960  164.4576 C.ar    1  UNL1        0.1711
     30 C         142.5481  139.0442  164.0606 C.ar    1  UNL1        0.0960
     31 C         143.3370  139.8726  165.0310 C.3     1  UNL1        0.0555
     32 N         143.0978  138.7642  162.6934 N.ar    1  UNL1       -0.2319
@<TRIPOS>BOND
     1    25    26    1
     2    26    27   ar
     3    27    28   ar
     4    28    29   ar
     5    29    24    1
     6    24    23    1
     7     1    23    1
     8     1     4    1
     9     4     5   ar
    10     5     6   ar
    11     6     7   ar
    12     7     8    1
    13     7     9   ar
    14     9    10    1
    15     9    11   ar
    16     1     2    1
    17     2     3    1
    18     3    12    1
    19    12    13    2
    20    12    14   am
    21    14    16    1
    22    16    17   ar
    23    17    18   ar
    24    18    19   ar
    25    19    20    1
    26    19    21   ar
    27    21    22   ar
    28    29    30   ar
    29    30    31    1
    30    30    32   ar
    31    32    26   ar
    32     3     1    1
    33    22    16   ar
    34    11     4   ar
    35    14    15    1
@<TRIPOS>MOLECULE
*****
 32 35 0 0 0
SMALL
GASTEIGER

@<TRIPOS>ATOM
      1 C         141.7599  143.6369  162.3755 C.3     1  UNL1        0.0679
      2 C         141.6281  144.9955  162.9974 C.3     1  UNL1        0.0177
      3 C         141.6990  143.7761  163.8677 C.3     1  UNL1        0.0845
      4 C         141.7771  144.0154  160.9241 C.ar    1  UNL1       -0.0164
      5 C         140.8135  145.0411  160.4050 C.ar    1  UNL1       -0.0017
      6 C         140.8307  145.4195  158.9536 C.ar    1  UNL1        0.0316
      7 C         141.8114  144.7723  158.0214 C.ar    1  UNL1        0.1674
      8 F         141.8286  145.1507  156.5700 F       1  UNL1       -0.2018
      9 C         142.7751  143.7466  158.5405 C.ar    1  UNL1        0.1671
     10 F         143.7559  143.0994  157.6082 F       1  UNL1       -0.2018
     11 C         142.7579  143.3682  159.9918 C.ar    1  UNL1        0.0278
     12 C         141.7048  143.1522  165.2319 C.2     1  UNL1        0.2271
     13 O         140.4937  143.2584  166.1104 O.2     1  UNL1       -0.2747
     14 N         142.9219  142.4220  165.7175 N.am    1  UNL1       -0.2693
     15 H         143.7168  142.3523  165.1409 H       1  UNL1        0.1563
     16 C         142.9277  141.7982  167.0816 C.ar    1  UNL1        0.1343
     17 C         142.4506  140.3877  167.2633 C.ar    1  UNL1        0.0368
     18 C         142.4565  139.7639  168.6274 C.ar    1  UNL1        0.0341
     19 C         142.9394  140.5505  169.8098 C.ar    1  UNL1        0.1593
     20 F         142.9453  139.9266  171.1739 F       1  UNL1       -0.2025
     21 C         143.4165  141.9609  169.6280 C.ar    1  UNL1        0.1298
     22 N         143.4107  142.5847  168.2640 N.ar    1  UNL1       -0.2267
     23 C         141.8858  142.1469  162.2576 C.3     1  UNL1        0.2098
     24 O         140.6635  141.3061  162.0364 O.3     1  UNL1       -0.4723
     25 C         137.9486  138.6750  166.6955 C.3     1  UNL1        0.0736
     26 C         138.6273  139.3328  165.5307 C.ar    1  UNL1        0.1394
     27 N         139.8771  138.7352  164.9556 N.ar    1  UNL1       -0.2260
     28 C         140.5558  139.3929  163.7909 C.ar    1  UNL1        0.1382
     29 C         139.9848  140.6483  163.2012 C.ar    1  UNL1        0.1711
     30 C         138.7350  141.2460  163.7763 C.ar    1  UNL1        0.0960
     31 C         138.1638  142.5015  163.1866 C.3     1  UNL1        0.0555
     32 N         138.0563  140.5882  164.9411 N.ar    1  UNL1       -0.2319
@<TRIPOS>BOND
     1    25    26    1
     2    26    27   ar
     3    27    28   ar
     4    28    29   ar
     5    29    24    1
     6    24    23    1
     7     1    23    1
     8     1     4    1
     9     4     5   ar
    10     5     6   ar
    11     6     7   ar
    12     7     8    1
    13     7     9   ar
    14     9    10    1
    15     9    11   ar
    16     1     2    1
    17     2     3    1
    18     3    12    1
    19    12    13    2
    20    12    14   am
    21    14    16    1
    22    16    17   ar
    23    17    18   ar
    24    18    19   ar
    25    19    20    1
    26    19    21   ar
    27    21    22   ar
    28    29    30   ar
    29    30    31    1
    30    30    32   ar
    31    32    26   ar
    32     3     1    1
    33    22    16   ar
    34    11     4   ar
    35    14    15    1
@<TRIPOS>MOLECULE
*****
 32 35 0 0 0
SMALL
GASTEIGER

@<TRIPOS>ATOM
      1 C         142.9518  140.8971  165.9983 C.3     1  UNL1        0.0679
      2 C         143.2242  142.3709  165.9369 C.3     1  UNL1        0.0177
      3 C         143.5020  141.5066  164.7430 C.3     1  UNL1        0.0845
      4 C         142.4336  140.7862  167.4016 C.ar    1  UNL1       -0.0164
      5 C         141.6395  141.9099  167.9989 C.ar    1  UNL1       -0.0017
      6 C         141.1214  141.7990  169.4022 C.ar    1  UNL1        0.0316
      7 C         141.3973  140.5644  170.2081 C.ar    1  UNL1        0.1674
      8 F         140.8792  140.4534  171.6114 F       1  UNL1       -0.2018
      9 C         142.1914  139.4407  169.6108 C.ar    1  UNL1        0.1671
     10 F         142.4673  138.2061  170.4168 F       1  UNL1       -0.2018
     11 C         142.7096  139.5516  168.2075 C.ar    1  UNL1        0.0278
     12 C         143.9802  141.3594  163.3288 C.2     1  UNL1        0.2271
     13 O         145.3915  140.9314  163.0549 O.2     1  UNL1       -0.2747
     14 N         143.0469  141.6401  162.1885 N.am    1  UNL1       -0.2693
     15 H         142.1206  141.9209  162.3683 H       1  UNL1        0.1563
     16 C         143.5249  141.4929  160.7744 C.ar    1  UNL1        0.1343
     17 C         143.2512  140.2267  160.0181 C.ar    1  UNL1        0.0368
     18 C         143.7293  140.0796  158.6040 C.ar    1  UNL1        0.0341
     19 C         144.4811  141.1985  157.9461 C.ar    1  UNL1        0.1593
     20 F         144.9591  141.0513  156.5320 F       1  UNL1       -0.2025
     21 C         144.7547  142.4646  158.7024 C.ar    1  UNL1        0.1298
     22 N         144.2767  142.6118  160.1165 N.ar    1  UNL1       -0.2267
     23 C         142.8593  139.4619  165.5722 C.3     1  UNL1        0.2098
     24 O         141.5226  138.8563  165.2619 O.3     1  UNL1       -0.4723
     25 C         139.5192  138.7456  159.6073 C.3     1  UNL1        0.0736
     26 C         140.0200  138.7732  161.0210 C.ar    1  UNL1        0.1394
     27 N         140.9191  137.6810  161.5197 N.ar    1  UNL1       -0.2260
     28 C         141.4199  137.7087  162.9333 C.ar    1  UNL1        0.1382
     29 C         141.0218  138.8286  163.8483 C.ar    1  UNL1        0.1711
     30 C         140.1227  139.9208  163.3496 C.ar    1  UNL1        0.0960
     31 C         139.7245  141.0408  164.2646 C.3     1  UNL1        0.0555
     32 N         139.6219  139.8931  161.9359 N.ar    1  UNL1       -0.2319
@<TRIPOS>BOND
     1    25    26    1
     2    26    27   ar
     3    27    28   ar
     4    28    29   ar
     5    29    24    1
     6    24    23    1
     7     1    23    1
     8     1     4    1
     9     4     5   ar
    10     5     6   ar
    11     6     7   ar
    12     7     8    1
    13     7     9   ar
    14     9    10    1
    15     9    11   ar
    16     1     2    1
    17     2     3    1
    18     3    12    1
    19    12    13    2
    20    12    14   am
    21    14    16    1
    22    16    17   ar
    23    17    18   ar
    24    18    19   ar
    25    19    20    1
    26    19    21   ar
    27    21    22   ar
    28    29    30   ar
    29    30    31    1
    30    30    32   ar
    31    32    26   ar
    32     3     1    1
    33    22    16   ar
    34    11     4   ar
    35    14    15    1
@<TRIPOS>MOLECULE
*****
 32 35 0 0 0
SMALL
GASTEIGER

@<TRIPOS>ATOM
      1 C         141.2431  139.3636  165.8497 C.3     1  UNL1        0.0679
      2 C         142.5082  138.5591  165.8972 C.3     1  UNL1        0.0177
      3 C         141.7170  138.6381  164.6254 C.3     1  UNL1        0.0845
      4 C         141.2038  139.8709  167.2608 C.ar    1  UNL1       -0.0164
      5 C         142.4802  140.2125  167.9708 C.ar    1  UNL1       -0.0017
      6 C         142.4409  140.7198  169.3818 C.ar    1  UNL1        0.0316
      7 C         141.1252  140.8855  170.0829 C.ar    1  UNL1        0.1674
      8 F         141.0859  141.3928  171.4939 F       1  UNL1       -0.2018
      9 C         139.8488  140.5439  169.3728 C.ar    1  UNL1        0.1671
     10 F         138.5331  140.7097  170.0739 F       1  UNL1       -0.2018
     11 C         139.8881  140.0366  167.9618 C.ar    1  UNL1        0.0278
     12 C         141.5339  138.2648  163.1841 C.2     1  UNL1        0.2271
     13 O         140.9036  136.9523  162.8235 O.2     1  UNL1       -0.2747
     14 N         141.9809  139.2041  162.1034 N.am    1  UNL1       -0.2693
     15 H         142.3946  140.0656  162.3401 H       1  UNL1        0.1563
     16 C         141.7978  138.8309  160.6622 C.ar    1  UNL1        0.1343
     17 C         142.8449  138.0193  159.9587 C.ar    1  UNL1        0.0368
     18 C         142.6617  137.6461  158.5175 C.ar    1  UNL1        0.0341
     19 C         141.4314  138.0845  157.7797 C.ar    1  UNL1        0.1593
     20 F         141.2483  137.7113  156.3385 F       1  UNL1       -0.2025
     21 C         140.3844  138.8962  158.4832 C.ar    1  UNL1        0.1298
     22 N         140.5676  139.2694  159.9244 N.ar    1  UNL1       -0.2267
     23 C         139.9916  139.9919  165.3120 C.3     1  UNL1        0.2098
     24 O         139.9485  141.4671  165.0437 O.3     1  UNL1       -0.4723
     25 C         142.3095  143.6663  159.9851 C.3     1  UNL1        0.0736
     26 C         141.7193  143.1165  161.2498 C.ar    1  UNL1        0.1394
     27 N         140.3478  142.5093  161.2352 N.ar    1  UNL1       -0.2260
     28 C         139.7575  141.9595  162.4999 C.ar    1  UNL1        0.1382
     29 C         140.5388  142.0169  163.7791 C.ar    1  UNL1        0.1711
     30 C         141.9103  142.6241  163.7936 C.ar    1  UNL1        0.0960
     31 C         142.6916  142.6815  165.0728 C.3     1  UNL1        0.0555
     32 N         142.5005  143.1739  162.5289 N.ar    1  UNL1       -0.2319
@<TRIPOS>BOND
     1    25    26    1
     2    26    27   ar
     3    27    28   ar
     4    28    29   ar
     5    29    24    1
     6    24    23    1
     7     1    23    1
     8     1     4    1
     9     4     5   ar
    10     5     6   ar
    11     6     7   ar
    12     7     8    1
    13     7     9   ar
    14     9    10    1
    15     9    11   ar
    16     1     2    1
    17     2     3    1
    18     3    12    1
    19    12    13    2
    20    12    14   am
    21    14    16    1
    22    16    17   ar
    23    17    18   ar
    24    18    19   ar
    25    19    20    1
    26    19    21   ar
    27    21    22   ar
    28    29    30   ar
    29    30    31    1
    30    30    32   ar
    31    32    26   ar
    32     3     1    1
    33    22    16   ar
    34    11     4   ar
    35    14    15    1
