@<TRIPOS>MOLECULE
*****
 29 33 0 0 0
SMALL
GASTEIGER

@<TRIPOS>ATOM
      1 C         139.8748  140.0405  167.5963 C.ar    1  UNL1        0.0004
      2 C         138.5438  139.3915  167.3573 C.ar    1  UNL1        0.0031
      3 C         138.2717  138.6949  166.0571 C.ar    1  UNL1        0.0370
      4 C         139.3307  138.6474  164.9958 C.ar    1  UNL1        0.1415
      5 C         140.6617  139.2964  165.2347 C.ar    1  UNL1        0.0699
      6 C         140.9337  139.9930  166.5350 C.ar    1  UNL1        0.0061
      7 C         141.8467  139.3652  164.3177 C.ar    1  UNL1        0.1718
      8 N         143.1317  140.0501  164.6779 N.ar    1  UNL1       -0.1258
      9 N         144.0725  139.9102  163.5180 N.ar    1  UNL1       -0.0913
     10 C         143.3690  139.1388  162.4411 C.ar    1  UNL1        0.3249
     11 N         141.9934  138.8019  162.9352 N.ar    1  UNL1       -0.2613
     12 C         140.9913  138.0307  162.1284 C.3     1  UNL1        0.1592
     13 C         139.5950  137.6324  162.5046 C.3     1  UNL1        0.2299
     14 O         138.8560  137.9068  163.7808 O.3     1  UNL1       -0.4733
     15 C         140.3501  144.4296  170.3368 C.3     1  UNL1        0.0521
     16 C         140.3846  142.9317  170.2668 C.ar    1  UNL1        0.0594
     17 C         140.1124  142.2351  168.9665 C.ar    1  UNL1        0.0147
     18 C         140.1469  140.7371  168.8966 C.ar    1  UNL1        0.0027
     19 C         140.4535  139.9357  170.1269 C.ar    1  UNL1        0.0207
     20 C         140.7257  140.6323  171.4272 C.ar    1  UNL1        0.0984
     21 N         140.6912  142.1303  171.4972 N.ar    1  UNL1       -0.2481
     22 O         143.9409  138.7691  161.1045 O.3     1  UNL1       -0.4216
     23 C         143.6852  139.6421  159.9118 C.ar    1  UNL1        0.1591
     24 C         144.0999  141.0834  159.9347 C.ar    1  UNL1        0.0385
     25 C         143.8442  141.9564  158.7419 C.ar    1  UNL1        0.0032
     26 C         143.1737  141.3880  157.5265 C.ar    1  UNL1        0.0011
     27 C         142.7590  139.9467  157.5036 C.ar    1  UNL1        0.0145
     28 C         143.0147  139.0737  158.6964 C.ar    1  UNL1        0.0922
     29 CL        142.6000  137.6324  158.6735 Cl      1  UNL1       -0.0791
@<TRIPOS>BOND
     1    15    16    1
     2    16    17   ar
     3    17    18   ar
     4    18     1    1
     5     1     2   ar
     6     2     3   ar
     7     3     4   ar
     8     4     5   ar
     9     5     6   ar
    10     5     7    1
    11     7     8   ar
    12     8     9   ar
    13     9    10   ar
    14    10    22    1
    15    22    23    1
    16    23    24   ar
    17    24    25   ar
    18    25    26   ar
    19    26    27   ar
    20    27    28   ar
    21    28    29    1
    22    10    11   ar
    23    11    12    1
    24    12    13    1
    25    13    14    1
    26    18    19   ar
    27    19    20   ar
    28    20    21   ar
    29    21    16   ar
    30     6     1   ar
    31    11     7   ar
    32    14     4    1
    33    28    23   ar
@<TRIPOS>MOLECULE
*****
 29 33 0 0 0
SMALL
GASTEIGER

@<TRIPOS>ATOM
      1 C         140.0677  141.6066  167.0519 C.ar    1  UNL1        0.0004
      2 C         139.2492  140.3671  166.8435 C.ar    1  UNL1        0.0031
      3 C         138.5982  140.1126  165.5163 C.ar    1  UNL1        0.0370
      4 C         138.7658  141.0976  164.3975 C.ar    1  UNL1        0.1415
      5 C         139.5843  142.3372  164.6059 C.ar    1  UNL1        0.0699
      6 C         140.2353  142.5917  165.9331 C.ar    1  UNL1        0.0061
      7 C         139.8765  143.4397  163.6319 C.ar    1  UNL1        0.1718
      8 N         140.7168  144.6365  163.9659 N.ar    1  UNL1       -0.1258
      9 N         140.7819  145.5115  162.7493 N.ar    1  UNL1       -0.0913
     10 C         139.9818  144.8555  161.6633 C.ar    1  UNL1        0.3249
     11 N         139.4222  143.5751  162.2087 N.ar    1  UNL1       -0.2613
     12 C         138.5636  142.6413  161.4082 C.3     1  UNL1        0.1592
     13 C         137.9472  141.3415  161.8331 C.3     1  UNL1        0.2299
     14 O         138.0372  140.6545  163.1635 O.3     1  UNL1       -0.4733
     15 C         144.3092  142.6986  169.8480 C.3     1  UNL1        0.0521
     16 C         142.8395  142.4072  169.7771 C.ar    1  UNL1        0.0594
     17 C         142.1884  142.1526  168.4499 C.ar    1  UNL1        0.0147
     18 C         140.7188  141.8612  168.3791 C.ar    1  UNL1        0.0027
     19 C         139.9000  141.8243  169.6354 C.ar    1  UNL1        0.0207
     20 C         140.5510  142.0788  170.9626 C.ar    1  UNL1        0.0984
     21 N         142.0208  142.3703  171.0335 N.ar    1  UNL1       -0.2481
     22 O         139.7772  145.3867  160.2755 O.3     1  UNL1       -0.4216
     23 C         140.7223  144.9991  159.1770 C.ar    1  UNL1        0.1591
     24 C         141.7583  143.9414  159.4176 C.ar    1  UNL1        0.0385
     25 C         142.7034  143.5537  158.3191 C.ar    1  UNL1        0.0032
     26 C         142.6124  144.2238  156.9802 C.ar    1  UNL1        0.0011
     27 C         141.5763  145.2815  156.7397 C.ar    1  UNL1        0.0145
     28 C         140.6313  145.6691  157.8382 C.ar    1  UNL1        0.0922
     29 CL        139.5952  146.7268  157.5976 Cl      1  UNL1       -0.0791
@<TRIPOS>BOND
     1    15    16    1
     2    16    17   ar
     3    17    18   ar
     4    18     1    1
     5     1     2   ar
     6     2     3   ar
     7     3     4   ar
     8     4     5   ar
     9     5     6   ar
    10     5     7    1
    11     7     8   ar
    12     8     9   ar
    13     9    10   ar
    14    10    22    1
    15    22    23    1
    16    23    24   ar
    17    24    25   ar
    18    25    26   ar
    19    26    27   ar
    20    27    28   ar
    21    28    29    1
    22    10    11   ar
    23    11    12    1
    24    12    13    1
    25    13    14    1
    26    18    19   ar
    27    19    20   ar
    28    20    21   ar
    29    21    16   ar
    30     6     1   ar
    31    11     7   ar
    32    14     4    1
    33    28    23   ar
@<TRIPOS>MOLECULE
*****
 29 33 0 0 0
SMALL
GASTEIGER

@<TRIPOS>ATOM
      1 C         142.3580  140.1178  167.2999 C.ar    1  UNL1        0.0004
      2 C         143.1052  138.8490  167.0139 C.ar    1  UNL1        0.0031
      3 C         143.7444  138.6412  165.6730 C.ar    1  UNL1        0.0370
      4 C         143.6366  139.7021  164.6181 C.ar    1  UNL1        0.1415
      5 C         142.8895  140.9709  164.9042 C.ar    1  UNL1        0.0699
      6 C         142.2502  141.1788  166.2451 C.ar    1  UNL1        0.0061
      7 C         142.6635  142.1471  164.0012 C.ar    1  UNL1        0.1718
      8 N         141.8919  143.3667  164.4100 N.ar    1  UNL1       -0.1258
      9 N         141.8804  144.3183  163.2505 N.ar    1  UNL1       -0.0913
     10 C         142.6449  143.6868  162.1251 C.ar    1  UNL1        0.3249
     11 N         143.1289  142.3450  162.5889 N.ar    1  UNL1       -0.2613
     12 C         143.9352  141.4155  161.7311 C.3     1  UNL1        0.1592
     13 C         144.4753  140.0586  162.0734 C.3     1  UNL1        0.2299
     14 O         144.3423  139.2961  163.3584 O.3     1  UNL1       -0.4733
     15 C         138.1341  140.0791  170.3260 C.3     1  UNL1        0.0521
     16 C         139.6067  140.3064  170.1540 C.ar    1  UNL1        0.0594
     17 C         140.2461  140.0985  168.8130 C.ar    1  UNL1        0.0147
     18 C         141.7187  140.3257  168.6409 C.ar    1  UNL1        0.0027
     19 C         142.5521  140.7609  169.8097 C.ar    1  UNL1        0.0207
     20 C         141.9128  140.9688  171.1506 C.ar    1  UNL1        0.0984
     21 N         140.4401  140.7415  171.3228 N.ar    1  UNL1       -0.2481
     22 O         142.8835  144.2912  160.7731 O.3     1  UNL1       -0.4216
     23 C         142.0280  143.8869  159.6092 C.ar    1  UNL1        0.1591
     24 C         142.5060  142.8296  158.6586 C.ar    1  UNL1        0.0385
     25 C         141.6504  142.4253  157.4947 C.ar    1  UNL1        0.0032
     26 C         140.3171  143.0783  157.2814 C.ar    1  UNL1        0.0011
     27 C         139.8391  144.1356  158.2320 C.ar    1  UNL1        0.0145
     28 C         140.6946  144.5399  159.3960 C.ar    1  UNL1        0.0922
     29 CL        140.2166  145.5972  160.3465 Cl      1  UNL1       -0.0791
@<TRIPOS>BOND
     1    15    16    1
     2    16    17   ar
     3    17    18   ar
     4    18     1    1
     5     1     2   ar
     6     2     3   ar
     7     3     4   ar
     8     4     5   ar
     9     5     6   ar
    10     5     7    1
    11     7     8   ar
    12     8     9   ar
    13     9    10   ar
    14    10    22    1
    15    22    23    1
    16    23    24   ar
    17    24    25   ar
    18    25    26   ar
    19    26    27   ar
    20    27    28   ar
    21    28    29    1
    22    10    11   ar
    23    11    12    1
    24    12    13    1
    25    13    14    1
    26    18    19   ar
    27    19    20   ar
    28    20    21   ar
    29    21    16   ar
    30     6     1   ar
    31    11     7   ar
    32    14     4    1
    33    28    23   ar
@<TRIPOS>MOLECULE
*****
 29 33 0 0 0
SMALL
GASTEIGER

@<TRIPOS>ATOM
      1 C         142.6260  140.5432  167.1707 C.ar    1  UNL1        0.0004
      2 C         142.9683  139.0914  167.0124 C.ar    1  UNL1        0.0031
      3 C         143.3859  138.5611  165.6729 C.ar    1  UNL1        0.0370
      4 C         143.4614  139.4826  164.4917 C.ar    1  UNL1        0.1415
      5 C         143.1191  140.9344  164.6500 C.ar    1  UNL1        0.0699
      6 C         142.7015  141.4647  165.9895 C.ar    1  UNL1        0.0061
      7 C         143.1283  142.0162  163.6110 C.ar    1  UNL1        0.1718
      8 N         142.7619  143.4419  163.8991 N.ar    1  UNL1       -0.1258
      9 N         142.8892  144.2202  162.6231 N.ar    1  UNL1       -0.0913
     10 C         143.3343  143.2754  161.5464 C.ar    1  UNL1        0.3249
     11 N         143.4820  141.9133  162.1569 N.ar    1  UNL1       -0.2613
     12 C         143.9139  140.7032  161.3828 C.3     1  UNL1        0.1592
     13 C         144.0988  139.2972  161.8715 C.3     1  UNL1        0.2299
     14 O         143.8973  138.7540  163.2552 O.3     1  UNL1       -0.4733
     15 C         140.3505  144.2287  170.0413 C.3     1  UNL1        0.0521
     16 C         141.0706  142.9163  169.9455 C.ar    1  UNL1        0.0594
     17 C         141.4883  142.3860  168.6060 C.ar    1  UNL1        0.0147
     18 C         142.2083  141.0736  168.5103 C.ar    1  UNL1        0.0027
     19 C         142.5107  140.2915  169.7540 C.ar    1  UNL1        0.0207
     20 C         142.0931  140.8218  171.0935 C.ar    1  UNL1        0.0984
     21 N         141.3730  142.1343  171.1893 N.ar    1  UNL1       -0.2481
     22 O         143.5871  143.6306  160.1112 O.3     1  UNL1       -0.4216
     23 C         142.5012  143.4525  159.0919 C.ar    1  UNL1        0.1591
     24 C         141.1211  143.9715  159.3678 C.ar    1  UNL1        0.0385
     25 C         140.0352  143.7934  158.3485 C.ar    1  UNL1        0.0032
     26 C         140.3293  143.0964  157.0533 C.ar    1  UNL1        0.0011
     27 C         141.7094  142.5774  156.7773 C.ar    1  UNL1        0.0145
     28 C         142.7953  142.7555  157.7967 C.ar    1  UNL1        0.0922
     29 CL        144.1753  142.2366  157.5207 Cl      1  UNL1       -0.0791
@<TRIPOS>BOND
     1    15    16    1
     2    16    17   ar
     3    17    18   ar
     4    18     1    1
     5     1     2   ar
     6     2     3   ar
     7     3     4   ar
     8     4     5   ar
     9     5     6   ar
    10     5     7    1
    11     7     8   ar
    12     8     9   ar
    13     9    10   ar
    14    10    22    1
    15    22    23    1
    16    23    24   ar
    17    24    25   ar
    18    25    26   ar
    19    26    27   ar
    20    27    28   ar
    21    28    29    1
    22    10    11   ar
    23    11    12    1
    24    12    13    1
    25    13    14    1
    26    18    19   ar
    27    19    20   ar
    28    20    21   ar
    29    21    16   ar
    30     6     1   ar
    31    11     7   ar
    32    14     4    1
    33    28    23   ar
@<TRIPOS>MOLECULE
*****
 29 33 0 0 0
SMALL
GASTEIGER

@<TRIPOS>ATOM
      1 C         138.7215  141.2421  163.8922 C.ar    1  UNL1        0.0004
      2 C         138.0174  142.5510  163.6896 C.ar    1  UNL1        0.0031
      3 C         137.9327  143.1526  162.3182 C.ar    1  UNL1        0.0370
      4 C         138.5521  142.4454  161.1494 C.ar    1  UNL1        0.1415
      5 C         139.2562  141.1366  161.3520 C.ar    1  UNL1        0.0699
      6 C         139.3409  140.5349  162.7234 C.ar    1  UNL1        0.0061
      7 C         139.9366  140.2729  160.3317 C.ar    1  UNL1        0.1718
      8 N         140.6102  138.9747  160.6648 N.ar    1  UNL1       -0.1258
      9 N         141.1708  138.4043  159.3958 N.ar    1  UNL1       -0.0913
     10 C         140.8436  139.3499  158.2784 C.ar    1  UNL1        0.3249
     11 N         140.0808  140.5047  158.8567 N.ar    1  UNL1       -0.2613
     12 C         139.5804  141.6576  158.0378 C.3     1  UNL1        0.1592
     13 C         138.8121  142.8632  158.4916 C.3     1  UNL1        0.2299
     14 O         138.3544  143.2139  159.8764 O.3     1  UNL1       -0.4733
     15 C         137.2150  137.6500  167.3313 C.3     1  UNL1        0.0521
     16 C         138.0530  138.8443  166.9832 C.ar    1  UNL1        0.0594
     17 C         137.9683  139.4461  165.6117 C.ar    1  UNL1        0.0147
     18 C         138.8063  140.6404  165.2637 C.ar    1  UNL1        0.0027
     19 C         139.7290  141.2332  166.2870 C.ar    1  UNL1        0.0207
     20 C         139.8138  140.6315  167.6584 C.ar    1  UNL1        0.0984
     21 N         138.9758  139.4371  168.0065 N.ar    1  UNL1       -0.2481
     22 O         141.2143  139.1718  156.8358 O.3     1  UNL1       -0.4216
     23 C         141.7878  137.8685  156.3641 C.ar    1  UNL1        0.1591
     24 C         143.2746  137.6737  156.3254 C.ar    1  UNL1        0.0385
     25 C         143.8481  136.3704  155.8536 C.ar    1  UNL1        0.0032
     26 C         142.9349  135.2621  155.4206 C.ar    1  UNL1        0.0011
     27 C         141.4481  135.4569  155.4593 C.ar    1  UNL1        0.0145
     28 C         140.8746  136.7603  155.9310 C.ar    1  UNL1        0.0922
     29 CL        139.3878  136.9551  155.9697 Cl      1  UNL1       -0.0791
@<TRIPOS>BOND
     1    15    16    1
     2    16    17   ar
     3    17    18   ar
     4    18     1    1
     5     1     2   ar
     6     2     3   ar
     7     3     4   ar
     8     4     5   ar
     9     5     6   ar
    10     5     7    1
    11     7     8   ar
    12     8     9   ar
    13     9    10   ar
    14    10    22    1
    15    22    23    1
    16    23    24   ar
    17    24    25   ar
    18    25    26   ar
    19    26    27   ar
    20    27    28   ar
    21    28    29    1
    22    10    11   ar
    23    11    12    1
    24    12    13    1
    25    13    14    1
    26    18    19   ar
    27    19    20   ar
    28    20    21   ar
    29    21    16   ar
    30     6     1   ar
    31    11     7   ar
    32    14     4    1
    33    28    23   ar
@<TRIPOS>MOLECULE
*****
 29 33 0 0 0
SMALL
GASTEIGER

@<TRIPOS>ATOM
      1 C         143.3348  141.7805  165.5704 C.ar    1  UNL1        0.0004
      2 C         143.7188  143.1957  165.2544 C.ar    1  UNL1        0.0031
      3 C         144.0154  143.5940  163.8390 C.ar    1  UNL1        0.0370
      4 C         143.9281  142.5772  162.7397 C.ar    1  UNL1        0.1415
      5 C         143.5442  141.1621  163.0557 C.ar    1  UNL1        0.0699
      6 C         143.2476  140.7637  164.4711 C.ar    1  UNL1        0.0061
      7 C         143.3994  140.0006  162.1177 C.ar    1  UNL1        0.1718
      8 N         143.0062  138.6231  162.5626 N.ar    1  UNL1       -0.1258
      9 N         142.9665  137.7386  161.3517 N.ar    1  UNL1       -0.0913
     10 C         143.3351  138.5695  160.1586 C.ar    1  UNL1        0.3249
     11 N         143.6027  139.9674  160.6319 N.ar    1  UNL1       -0.2613
     12 C         144.0010  141.0876  159.7172 C.3     1  UNL1        0.1592
     13 C         144.2945  142.5175  160.0624 C.3     1  UNL1        0.2299
     14 O         144.2620  143.1805  161.4076 O.3     1  UNL1       -0.4733
     15 C         142.8491  143.0323  170.5901 C.3     1  UNL1        0.0521
     16 C         142.7953  142.0080  169.4957 C.ar    1  UNL1        0.0594
     17 C         143.0920  142.4064  168.0803 C.ar    1  UNL1        0.0147
     18 C         143.0382  141.3821  166.9858 C.ar    1  UNL1        0.0027
     19 C         142.6877  139.9593  167.3067 C.ar    1  UNL1        0.0207
     20 C         142.3911  139.5609  168.7220 C.ar    1  UNL1        0.0984
     21 N         142.4448  140.5852  169.8166 N.ar    1  UNL1       -0.2481
     22 O         143.4211  138.0869  158.7409 O.3     1  UNL1       -0.4216
     23 C         142.1682  137.8685  157.9456 C.ar    1  UNL1        0.1591
     24 C         140.9209  138.6285  158.2873 C.ar    1  UNL1        0.0385
     25 C         139.6680  138.4099  157.4919 C.ar    1  UNL1        0.0032
     26 C         139.6624  137.4315  156.3550 C.ar    1  UNL1        0.0011
     27 C         140.9097  136.6715  156.0134 C.ar    1  UNL1        0.0145
     28 C         142.1626  136.8901  156.8087 C.ar    1  UNL1        0.0922
     29 CL        143.4099  136.1301  156.4670 Cl      1  UNL1       -0.0791
@<TRIPOS>BOND
     1    15    16    1
     2    16    17   ar
     3    17    18   ar
     4    18     1    1
     5     1     2   ar
     6     2     3   ar
     7     3     4   ar
     8     4     5   ar
     9     5     6   ar
    10     5     7    1
    11     7     8   ar
    12     8     9   ar
    13     9    10   ar
    14    10    22    1
    15    22    23    1
    16    23    24   ar
    17    24    25   ar
    18    25    26   ar
    19    26    27   ar
    20    27    28   ar
    21    28    29    1
    22    10    11   ar
    23    11    12    1
    24    12    13    1
    25    13    14    1
    26    18    19   ar
    27    19    20   ar
    28    20    21   ar
    29    21    16   ar
    30     6     1   ar
    31    11     7   ar
    32    14     4    1
    33    28    23   ar
@<TRIPOS>MOLECULE
*****
 29 33 0 0 0
SMALL
GASTEIGER

@<TRIPOS>ATOM
      1 C         141.6279  138.4913  159.4766 C.ar    1  UNL1        0.0004
      2 C         140.1391  138.3646  159.3456 C.ar    1  UNL1        0.0031
      3 C         139.2805  138.3057  160.5741 C.ar    1  UNL1        0.0370
      4 C         139.9107  138.3735  161.9336 C.ar    1  UNL1        0.1415
      5 C         141.3995  138.5001  162.0646 C.ar    1  UNL1        0.0699
      6 C         142.2582  138.5590  160.8361 C.ar    1  UNL1        0.0061
      7 C         142.2247  138.5831  163.3144 C.ar    1  UNL1        0.1718
      8 N         143.7194  138.7088  163.3110 N.ar    1  UNL1       -0.1258
      9 N         144.1833  138.7632  164.7365 N.ar    1  UNL1       -0.0913
     10 C         142.9753  138.6712  165.6208 C.ar    1  UNL1        0.3249
     11 N         141.7648  138.5599  164.7420 N.ar    1  UNL1       -0.2613
     12 C         140.3661  138.4480  165.2723 C.3     1  UNL1        0.1592
     13 C         139.0819  138.3317  164.5061 C.3     1  UNL1        0.2299
     14 O         138.8793  138.2985  163.0201 O.3     1  UNL1       -0.4733
     15 C         143.8683  136.1166  155.4341 C.3     1  UNL1        0.0521
     16 C         143.6069  137.3628  156.2268 C.ar    1  UNL1        0.0594
     17 C         142.7481  137.3039  157.4554 C.ar    1  UNL1        0.0147
     18 C         142.4867  138.5502  158.2481 C.ar    1  UNL1        0.0027
     19 C         143.0839  139.8553  157.8124 C.ar    1  UNL1        0.0207
     20 C         143.9426  139.9143  156.5840 C.ar    1  UNL1        0.0984
     21 N         144.2041  138.6680  155.7911 N.ar    1  UNL1       -0.2481
     22 O         142.9775  138.6877  167.1208 O.3     1  UNL1       -0.4216
     23 C         142.7279  139.9704  167.8572 C.ar    1  UNL1        0.1591
     24 C         142.6946  141.2703  167.1094 C.ar    1  UNL1        0.0385
     25 C         142.4450  142.5530  167.8459 C.ar    1  UNL1        0.0032
     26 C         142.2287  142.5358  169.3300 C.ar    1  UNL1        0.0011
     27 C         142.2620  141.2359  170.0779 C.ar    1  UNL1        0.0145
     28 C         142.5116  139.9532  169.3414 C.ar    1  UNL1        0.0922
     29 CL        142.5449  138.6534  170.0892 Cl      1  UNL1       -0.0791
@<TRIPOS>BOND
     1    15    16    1
     2    16    17   ar
     3    17    18   ar
     4    18     1    1
     5     1     2   ar
     6     2     3   ar
     7     3     4   ar
     8     4     5   ar
     9     5     6   ar
    10     5     7    1
    11     7     8   ar
    12     8     9   ar
    13     9    10   ar
    14    10    22    1
    15    22    23    1
    16    23    24   ar
    17    24    25   ar
    18    25    26   ar
    19    26    27   ar
    20    27    28   ar
    21    28    29    1
    22    10    11   ar
    23    11    12    1
    24    12    13    1
    25    13    14    1
    26    18    19   ar
    27    19    20   ar
    28    20    21   ar
    29    21    16   ar
    30     6     1   ar
    31    11     7   ar
    32    14     4    1
    33    28    23   ar
@<TRIPOS>MOLECULE
*****
 29 33 0 0 0
SMALL
GASTEIGER

@<TRIPOS>ATOM
      1 C         141.7384  142.1983  167.1322 C.ar    1  UNL1        0.0004
      2 C         143.1862  142.4749  166.8546 C.ar    1  UNL1        0.0031
      3 C         143.6281  142.8368  165.4676 C.ar    1  UNL1        0.0370
      4 C         142.6220  142.9221  164.3583 C.ar    1  UNL1        0.1415
      5 C         141.1742  142.6455  164.6359 C.ar    1  UNL1        0.0699
      6 C         140.7323  142.2836  166.0229 C.ar    1  UNL1        0.0061
      7 C         140.0167  142.6749  163.6823 C.ar    1  UNL1        0.1718
      8 N         138.6039  142.3763  164.0880 N.ar    1  UNL1       -0.1258
      9 N         137.7353  142.5050  162.8718 N.ar    1  UNL1       -0.0913
     10 C         138.6114  142.8832  161.7145 C.ar    1  UNL1        0.3249
     11 N         140.0214  142.9882  162.2153 N.ar    1  UNL1       -0.2613
     12 C         141.1845  143.3495  161.3398 C.3     1  UNL1        0.1592
     13 C         142.6304  143.4867  161.7149 C.3     1  UNL1        0.2299
     14 O         143.2701  143.2965  163.0584 O.3     1  UNL1       -0.4733
     15 C         138.2498  140.0466  170.3261 C.3     1  UNL1        0.0521
     16 C         139.5522  140.7605  170.1162 C.ar    1  UNL1        0.0594
     17 C         139.9941  141.1224  168.7292 C.ar    1  UNL1        0.0147
     18 C         141.2965  141.8363  168.5193 C.ar    1  UNL1        0.0027
     19 C         142.1570  142.1883  169.6964 C.ar    1  UNL1        0.0207
     20 C         141.7152  141.8264  171.0834 C.ar    1  UNL1        0.0984
     21 N         140.4128  141.1124  171.2933 N.ar    1  UNL1       -0.2481
     22 O         138.1571  143.1156  160.3039 O.3     1  UNL1       -0.4216
     23 C         138.6971  142.2654  159.1923 C.ar    1  UNL1        0.1591
     24 C         139.5109  142.8900  158.0980 C.ar    1  UNL1        0.0385
     25 C         140.0509  142.0397  156.9864 C.ar    1  UNL1        0.0032
     26 C         139.7770  140.5651  156.9692 C.ar    1  UNL1        0.0011
     27 C         138.9631  139.9405  158.0635 C.ar    1  UNL1        0.0145
     28 C         138.4232  140.7908  159.1751 C.ar    1  UNL1        0.0922
     29 CL        137.6093  140.1662  160.2694 Cl      1  UNL1       -0.0791
@<TRIPOS>BOND
     1    15    16    1
     2    16    17   ar
     3    17    18   ar
     4    18     1    1
     5     1     2   ar
     6     2     3   ar
     7     3     4   ar
     8     4     5   ar
     9     5     6   ar
    10     5     7    1
    11     7     8   ar
    12     8     9   ar
    13     9    10   ar
    14    10    22    1
    15    22    23    1
    16    23    24   ar
    17    24    25   ar
    18    25    26   ar
    19    26    27   ar
    20    27    28   ar
    21    28    29    1
    22    10    11   ar
    23    11    12    1
    24    12    13    1
    25    13    14    1
    26    18    19   ar
    27    19    20   ar
    28    20    21   ar
    29    21    16   ar
    30     6     1   ar
    31    11     7   ar
    32    14     4    1
    33    28    23   ar
@<TRIPOS>MOLECULE
*****
 29 33 0 0 0
SMALL
GASTEIGER

@<TRIPOS>ATOM
      1 C         141.9237  143.8658  159.8197 C.ar    1  UNL1        0.0004
      2 C         141.1369  145.1411  159.7525 C.ar    1  UNL1        0.0031
      3 C         140.3008  145.5689  160.9220 C.ar    1  UNL1        0.0370
      4 C         140.2516  144.7216  162.1588 C.ar    1  UNL1        0.1415
      5 C         141.0384  143.4463  162.2260 C.ar    1  UNL1        0.0699
      6 C         141.8744  143.0184  161.0564 C.ar    1  UNL1        0.0061
      7 C         141.1294  142.4618  163.3540 C.ar    1  UNL1        0.1718
      8 N         141.9589  141.2134  163.2964 N.ar    1  UNL1       -0.1258
      9 N         141.7981  140.4894  164.6003 N.ar    1  UNL1       -0.0913
     10 C         140.8693  141.2905  165.4637 C.ar    1  UNL1        0.3249
     11 N         140.4559  142.5095  164.6935 N.ar    1  UNL1       -0.2613
     12 C         139.5253  143.5534  165.2358 C.3     1  UNL1        0.1592
     13 C         139.0381  144.8075  164.5725 C.3     1  UNL1        0.2299
     14 O         139.3614  145.3273  163.2030 O.3     1  UNL1       -0.4733
     15 C         142.7394  143.7038  154.6905 C.3     1  UNL1        0.0521
     16 C         143.1677  143.3569  156.0855 C.ar    1  UNL1        0.0594
     17 C         142.3315  143.7848  157.2551 C.ar    1  UNL1        0.0147
     18 C         142.7598  143.4378  158.6501 C.ar    1  UNL1        0.0027
     19 C         144.0242  142.6629  158.8756 C.ar    1  UNL1        0.0207
     20 C         144.8603  142.2350  157.7062 C.ar    1  UNL1        0.0984
     21 N         144.4320  142.5819  156.3110 N.ar    1  UNL1       -0.2481
     22 O         140.4307  140.9349  166.8535 O.3     1  UNL1       -0.4216
     23 C         141.1607  141.4970  168.0372 C.ar    1  UNL1        0.1591
     24 C         140.6992  142.7796  168.6632 C.ar    1  UNL1        0.0385
     25 C         141.4292  143.3416  169.8470 C.ar    1  UNL1        0.0032
     26 C         142.6206  142.6210  170.4047 C.ar    1  UNL1        0.0011
     27 C         143.0822  141.3384  169.7787 C.ar    1  UNL1        0.0145
     28 C         142.3521  140.7764  168.5949 C.ar    1  UNL1        0.0922
     29 CL        142.8137  139.4937  167.9690 Cl      1  UNL1       -0.0791
@<TRIPOS>BOND
     1    15    16    1
     2    16    17   ar
     3    17    18   ar
     4    18     1    1
     5     1     2   ar
     6     2     3   ar
     7     3     4   ar
     8     4     5   ar
     9     5     6   ar
    10     5     7    1
    11     7     8   ar
    12     8     9   ar
    13     9    10   ar
    14    10    22    1
    15    22    23    1
    16    23    24   ar
    17    24    25   ar
    18    25    26   ar
    19    26    27   ar
    20    27    28   ar
    21    28    29    1
    22    10    11   ar
    23    11    12    1
    24    12    13    1
    25    13    14    1
    26    18    19   ar
    27    19    20   ar
    28    20    21   ar
    29    21    16   ar
    30     6     1   ar
    31    11     7   ar
    32    14     4    1
    33    28    23   ar
