@<TRIPOS>MOLECULE
*****
 39 44 0 0 0
SMALL
GASTEIGER

@<TRIPOS>ATOM
      1 C         137.8040  142.8967  163.3310 C.3     1  UNL1        0.0932
      2 C         137.9099  142.6748  161.8512 C.3     1  UNL1        0.0286
      3 C         137.9437  141.2791  161.3027 C.3     1  UNL1        0.0193
      4 C         137.8716  140.1053  162.2339 C.3     1  UNL1        0.0700
      5 C         137.7657  140.3272  163.7136 C.3     1  UNL1        0.0193
      6 C         137.7319  141.7230  164.2621 C.3     1  UNL1        0.0286
      7 C         137.8496  140.8515  162.5813 C.3     1  UNL1        0.1562
      8 O         137.8191  142.1136  163.0772 O.3     1  UNL1       -0.3572
      9 N         137.9054  138.7097  161.6854 N.3     1  UNL1       -0.2926
     10 H         137.3071  138.7034  160.8593 H       1  UNL1        0.1236
     11 C         139.2119  138.0952  161.2784 C.3     1  UNL1        0.1152
     12 C         140.4244  138.2686  162.1443 C.ar    1  UNL1        0.0765
     13 C         140.5935  137.4279  163.3750 C.ar    1  UNL1        0.0193
     14 C         141.8060  137.6014  164.2409 C.ar    1  UNL1        0.0411
     15 C         142.8493  138.6156  163.8761 C.ar    1  UNL1        0.1708
     16 C         142.6801  139.4562  162.6454 C.ar    1  UNL1        0.1682
     17 N         141.4676  139.2828  161.7795 N.ar    1  UNL1       -0.2304
     18 N         143.7234  140.4704  162.2807 N.am    1  UNL1       -0.2639
     19 C         144.9359  140.6439  163.1466 C.2     1  UNL1        0.2718
     20 O         145.9792  141.6580  162.7818 O.2     1  UNL1       -0.2707
     21 C         145.1051  139.8032  164.3773 C.3     1  UNL1        0.2898
     22 O         144.0618  138.7890  164.7421 O.3     1  UNL1       -0.4628
     23 H         143.6123  141.0221  161.4729 H       1  UNL1        0.1565
     24 C         137.7702  144.2924  163.8795 C.3     1  UNL1        0.0319
     25 C         138.9192  144.8055  164.6959 C.3     1  UNL1        0.0304
     26 C         140.9027  142.0174  167.6186 C.ar    1  UNL1        0.1595
     27 N         140.2415  142.9467  166.6444 N.ar    1  UNL1       -0.2272
     28 C         140.9701  143.3771  165.4058 C.ar    1  UNL1        0.0965
     29 C         140.3089  144.3065  164.4315 C.ar    1  UNL1       -0.0014
     30 C         141.0374  144.7368  163.1930 C.ar    1  UNL1        0.0179
     31 C         142.4270  144.2379  162.9287 C.ar    1  UNL1        0.0986
     32 N         143.0882  143.3085  163.9029 N.ar    1  UNL1       -0.2423
     33 C         142.3597  142.8781  165.1415 C.ar    1  UNL1        0.1010
     34 C         143.0208  141.9488  166.1157 C.ar    1  UNL1        0.0531
     35 C         142.2924  141.5184  167.3543 C.ar    1  UNL1        0.1730
     36 F         142.9535  140.5890  168.3285 F       1  UNL1       -0.2012
     37 C         140.0838  142.5127  170.0340 C.3     1  UNL1        0.1137
     38 N         140.1742  141.5870  168.8572 N.pl3   1  UNL1       -0.2880
     39 C         139.5361  140.2309  168.9190 C.3     1  UNL1        0.1137
@<TRIPOS>BOND
     1    37    38    1
     2    38    39    1
     3    38    26    1
     4    26    27   ar
     5    27    28   ar
     6    28    29   ar
     7    29    25    1
     8    25    24    1
     9    24     1    1
    10     1     2    1
    11     2     3    1
    12     3     4    1
    13     4     9    1
    14     9    11    1
    15    11    12    1
    16    12    13   ar
    17    13    14   ar
    18    14    15   ar
    19    15    16   ar
    20    16    17   ar
    21    16    18    1
    22    18    19   am
    23    19    20    2
    24    19    21    1
    25    21    22    1
    26     4     5    1
    27     5     6    1
    28     4     7    1
    29     7     8    1
    30    29    30   ar
    31    30    31   ar
    32    31    32   ar
    33    32    33   ar
    34    33    34   ar
    35    34    35   ar
    36    35    36    1
    37    35    26   ar
    38    33    28   ar
    39     6     1    1
    40     8     1    1
    41    17    12   ar
    42    22    15    1
    43     9    10    1
    44    18    23    1
@<TRIPOS>MOLECULE
*****
 39 44 0 0 0
SMALL
GASTEIGER

@<TRIPOS>ATOM
      1 C         142.2865  137.9861  163.9924 C.3     1  UNL1        0.0932
      2 C         143.1350  138.6093  165.0609 C.3     1  UNL1        0.0286
      3 C         144.2408  139.5511  164.6865 C.3     1  UNL1        0.0193
      4 C         144.4982  139.8697  163.2435 C.3     1  UNL1        0.0700
      5 C         143.6498  139.2465  162.1750 C.3     1  UNL1        0.0193
      6 C         142.5439  138.3047  162.5494 C.3     1  UNL1        0.0286
      7 C         143.8808  139.3478  163.3999 C.3     1  UNL1        0.1562
      8 O         142.8809  138.4962  163.7385 O.3     1  UNL1       -0.3572
      9 N         145.6040  140.8115  162.8691 N.3     1  UNL1       -0.2926
     10 H         145.6091  140.8696  161.8508 H       1  UNL1        0.1236
     11 C         145.5953  142.2206  163.3832 C.3     1  UNL1        0.1152
     12 C         144.3722  143.0726  163.2156 C.ar    1  UNL1        0.0765
     13 C         143.7129  143.6828  164.4168 C.ar    1  UNL1        0.0193
     14 C         142.4898  144.5348  164.2492 C.ar    1  UNL1        0.0411
     15 C         141.9260  144.7766  162.8804 C.ar    1  UNL1        0.1708
     16 C         142.5853  144.1664  161.6791 C.ar    1  UNL1        0.1682
     17 N         143.8085  143.3144  161.8468 N.ar    1  UNL1       -0.2304
     18 N         142.0216  144.4082  160.3103 N.am    1  UNL1       -0.2639
     19 C         140.7984  145.2603  160.1427 C.2     1  UNL1        0.2718
     20 O         140.2347  145.5021  158.7739 O.2     1  UNL1       -0.2707
     21 C         140.1391  145.8704  161.3439 C.3     1  UNL1        0.2898
     22 O         140.7029  145.6286  162.7128 O.3     1  UNL1       -0.4628
     23 H         142.4544  144.0078  159.5219 H       1  UNL1        0.1565
     24 C         141.1807  137.0444  164.3668 C.3     1  UNL1        0.0319
     25 C         139.8558  137.5845  164.8171 C.3     1  UNL1        0.0304
     26 C         140.1660  141.8571  166.1951 C.ar    1  UNL1        0.1595
     27 N         140.0626  140.4329  165.7357 N.ar    1  UNL1       -0.2272
     28 C         139.2890  140.0995  164.4945 C.ar    1  UNL1        0.0965
     29 C         139.1856  138.6753  164.0352 C.ar    1  UNL1       -0.0014
     30 C         138.4121  138.3418  162.7941 C.ar    1  UNL1        0.0179
     31 C         137.7420  139.4325  162.0123 C.ar    1  UNL1        0.0986
     32 N         137.8454  140.8567  162.4716 N.ar    1  UNL1       -0.2423
     33 C         138.6189  141.1902  163.7127 C.ar    1  UNL1        0.1010
     34 C         138.7223  142.6144  164.1721 C.ar    1  UNL1        0.0531
     35 C         139.4958  142.9479  165.4132 C.ar    1  UNL1        0.1730
     36 F         139.5992  144.3720  165.8725 F       1  UNL1       -0.2012
     37 C         140.2174  142.6385  168.6723 C.3     1  UNL1        0.1137
     38 N         140.9395  142.1906  167.4362 N.pl3   1  UNL1       -0.2880
     39 C         142.4352  142.0762  167.4412 C.3     1  UNL1        0.1137
@<TRIPOS>BOND
     1    37    38    1
     2    38    39    1
     3    38    26    1
     4    26    27   ar
     5    27    28   ar
     6    28    29   ar
     7    29    25    1
     8    25    24    1
     9    24     1    1
    10     1     2    1
    11     2     3    1
    12     3     4    1
    13     4     9    1
    14     9    11    1
    15    11    12    1
    16    12    13   ar
    17    13    14   ar
    18    14    15   ar
    19    15    16   ar
    20    16    17   ar
    21    16    18    1
    22    18    19   am
    23    19    20    2
    24    19    21    1
    25    21    22    1
    26     4     5    1
    27     5     6    1
    28     4     7    1
    29     7     8    1
    30    29    30   ar
    31    30    31   ar
    32    31    32   ar
    33    32    33   ar
    34    33    34   ar
    35    34    35   ar
    36    35    36    1
    37    35    26   ar
    38    33    28   ar
    39     6     1    1
    40     8     1    1
    41    17    12   ar
    42    22    15    1
    43     9    10    1
    44    18    23    1
@<TRIPOS>MOLECULE
*****
 39 44 0 0 0
SMALL
GASTEIGER

@<TRIPOS>ATOM
      1 C         144.5792  139.8183  163.5670 C.3     1  UNL1        0.0932
      2 C         143.7906  139.1319  164.6427 C.3     1  UNL1        0.0286
      3 C         142.6370  138.2455  164.2773 C.3     1  UNL1        0.0193
      4 C         142.2719  138.0456  162.8362 C.3     1  UNL1        0.0700
      5 C         143.0604  138.7319  161.7605 C.3     1  UNL1        0.0193
      6 C         144.2141  139.6183  162.1259 C.3     1  UNL1        0.0286
      7 C         142.9122  138.5407  162.9875 C.3     1  UNL1        0.1562
      8 O         143.9553  139.3421  163.3179 O.3     1  UNL1       -0.3572
      9 N         141.1183  137.1592  162.4708 N.3     1  UNL1       -0.2926
     10 H         140.9058  136.5976  163.2953 H       1  UNL1        0.1236
     11 C         139.8239  137.7634  162.0130 C.3     1  UNL1        0.1152
     12 C         139.2763  138.9764  162.7048 C.ar    1  UNL1        0.0765
     13 C         138.6577  138.8486  164.0654 C.ar    1  UNL1        0.0193
     14 C         138.1101  140.0616  164.7572 C.ar    1  UNL1        0.0411
     15 C         138.1810  141.4025  164.0885 C.ar    1  UNL1        0.1708
     16 C         138.7996  141.5303  162.7280 C.ar    1  UNL1        0.1682
     17 N         139.3472  140.3171  162.0361 N.ar    1  UNL1       -0.2304
     18 N         138.8706  142.8710  162.0593 N.am    1  UNL1       -0.2639
     19 C         138.3229  144.0842  162.7511 C.2     1  UNL1        0.2718
     20 O         138.3939  145.4249  162.0824 O.2     1  UNL1       -0.2707
     21 C         137.7043  143.9564  164.1116 C.3     1  UNL1        0.2898
     22 O         137.6334  142.6155  164.7803 O.3     1  UNL1       -0.4628
     23 H         139.2766  142.9549  161.1663 H       1  UNL1        0.1565
     24 C         145.7327  140.7047  163.9324 C.3     1  UNL1        0.0319
     25 C         145.4966  142.1528  164.2440 C.3     1  UNL1        0.0304
     26 C         142.4285  141.8092  167.5179 C.ar    1  UNL1        0.1595
     27 N         143.4512  141.9238  166.4266 N.ar    1  UNL1       -0.2272
     28 C         143.1091  142.6325  165.1496 C.ar    1  UNL1        0.0965
     29 C         144.1318  142.7471  164.0583 C.ar    1  UNL1       -0.0014
     30 C         143.7898  143.4558  162.7813 C.ar    1  UNL1        0.0179
     31 C         142.4251  144.0500  162.5957 C.ar    1  UNL1        0.0986
     32 N         141.4024  143.9355  163.6870 N.ar    1  UNL1       -0.2423
     33 C         141.7444  143.2267  164.9639 C.ar    1  UNL1        0.1010
     34 C         140.7218  143.1122  166.0553 C.ar    1  UNL1        0.0531
     35 C         141.0637  142.4035  167.3322 C.ar    1  UNL1        0.1730
     36 F         140.0411  142.2889  168.4236 F       1  UNL1       -0.2012
     37 C         143.4959  141.8300  169.8865 C.3     1  UNL1        0.1137
     38 N         142.7705  141.1005  168.7949 N.pl3   1  UNL1       -0.2880
     39 C         142.3870  139.6622  168.9803 C.3     1  UNL1        0.1137
@<TRIPOS>BOND
     1    37    38    1
     2    38    39    1
     3    38    26    1
     4    26    27   ar
     5    27    28   ar
     6    28    29   ar
     7    29    25    1
     8    25    24    1
     9    24     1    1
    10     1     2    1
    11     2     3    1
    12     3     4    1
    13     4     9    1
    14     9    11    1
    15    11    12    1
    16    12    13   ar
    17    13    14   ar
    18    14    15   ar
    19    15    16   ar
    20    16    17   ar
    21    16    18    1
    22    18    19   am
    23    19    20    2
    24    19    21    1
    25    21    22    1
    26     4     5    1
    27     5     6    1
    28     4     7    1
    29     7     8    1
    30    29    30   ar
    31    30    31   ar
    32    31    32   ar
    33    32    33   ar
    34    33    34   ar
    35    34    35   ar
    36    35    36    1
    37    35    26   ar
    38    33    28   ar
    39     6     1    1
    40     8     1    1
    41    17    12   ar
    42    22    15    1
    43     9    10    1
    44    18    23    1
@<TRIPOS>MOLECULE
*****
 39 44 0 0 0
SMALL
GASTEIGER

@<TRIPOS>ATOM
      1 C         138.4430  139.4862  164.1259 C.3     1  UNL1        0.0932
      2 C         138.3103  140.6535  165.0586 C.3     1  UNL1        0.0286
      3 C         137.9665  142.0099  164.5183 C.3     1  UNL1        0.0193
      4 C         137.7553  142.1991  163.0454 C.3     1  UNL1        0.0700
      5 C         137.8880  141.0319  162.1127 C.3     1  UNL1        0.0193
      6 C         138.2319  139.6754  162.6529 C.3     1  UNL1        0.0286
      7 C         137.9422  141.4369  163.2946 C.3     1  UNL1        0.1562
      8 O         138.2531  140.2104  163.7832 O.3     1  UNL1       -0.3572
      9 N         137.4114  143.5555  162.5051 N.3     1  UNL1       -0.2926
     10 H         136.5464  143.8438  162.9622 H       1  UNL1        0.1236
     11 C         138.3803  144.6907  162.6562 C.3     1  UNL1        0.1152
     12 C         139.8485  144.4547  162.4600 C.ar    1  UNL1        0.0765
     13 C         140.8440  145.1485  163.3418 C.ar    1  UNL1        0.0193
     14 C         142.3123  144.9126  163.1457 C.ar    1  UNL1        0.0411
     15 C         142.7851  143.9828  162.0677 C.ar    1  UNL1        0.1708
     16 C         141.7896  143.2890  161.1858 C.ar    1  UNL1        0.1682
     17 N         140.3213  143.5250  161.3820 N.ar    1  UNL1       -0.2304
     18 N         142.2623  142.3592  160.1079 N.am    1  UNL1       -0.2639
     19 C         143.7307  142.1233  159.9117 C.2     1  UNL1        0.2718
     20 O         144.2034  141.1935  158.8337 O.2     1  UNL1       -0.2707
     21 C         144.7262  142.8171  160.7935 C.3     1  UNL1        0.2898
     22 O         144.2534  143.7469  161.8715 O.3     1  UNL1       -0.4628
     23 H         141.6089  141.9039  159.5291 H       1  UNL1        0.1565
     24 C         138.7869  138.1298  164.6661 C.3     1  UNL1        0.0319
     25 C         140.2085  137.7983  165.0114 C.3     1  UNL1        0.0304
     26 C         142.4408  141.4409  166.4249 C.ar    1  UNL1        0.1595
     27 N         141.6967  140.2267  165.9537 N.ar    1  UNL1       -0.2272
     28 C         142.0744  139.5714  164.6584 C.ar    1  UNL1        0.0965
     29 C         141.3303  138.3572  164.1872 C.ar    1  UNL1       -0.0014
     30 C         141.7080  137.7018  162.8919 C.ar    1  UNL1        0.0179
     31 C         142.8298  138.2607  162.0678 C.ar    1  UNL1        0.0986
     32 N         143.5739  139.4749  162.5390 N.ar    1  UNL1       -0.2423
     33 C         143.1962  140.1302  163.8343 C.ar    1  UNL1        0.1010
     34 C         143.9403  141.3445  164.3055 C.ar    1  UNL1        0.0531
     35 C         143.5626  141.9998  165.6007 C.ar    1  UNL1        0.1730
     36 F         144.3067  143.2140  166.0719 F       1  UNL1       -0.2012
     37 C         143.0670  142.1978  168.8301 C.3     1  UNL1        0.1137
     38 N         142.0631  142.0963  167.7202 N.pl3   1  UNL1       -0.2880
     39 C         140.6814  142.6502  167.9056 C.3     1  UNL1        0.1137
@<TRIPOS>BOND
     1    37    38    1
     2    38    39    1
     3    38    26    1
     4    26    27   ar
     5    27    28   ar
     6    28    29   ar
     7    29    25    1
     8    25    24    1
     9    24     1    1
    10     1     2    1
    11     2     3    1
    12     3     4    1
    13     4     9    1
    14     9    11    1
    15    11    12    1
    16    12    13   ar
    17    13    14   ar
    18    14    15   ar
    19    15    16   ar
    20    16    17   ar
    21    16    18    1
    22    18    19   am
    23    19    20    2
    24    19    21    1
    25    21    22    1
    26     4     5    1
    27     5     6    1
    28     4     7    1
    29     7     8    1
    30    29    30   ar
    31    30    31   ar
    32    31    32   ar
    33    32    33   ar
    34    33    34   ar
    35    34    35   ar
    36    35    36    1
    37    35    26   ar
    38    33    28   ar
    39     6     1    1
    40     8     1    1
    41    17    12   ar
    42    22    15    1
    43     9    10    1
    44    18    23    1
@<TRIPOS>MOLECULE
*****
 39 44 0 0 0
SMALL
GASTEIGER

@<TRIPOS>ATOM
      1 C         144.5023  142.8501  163.1898 C.3     1  UNL1        0.0932
      2 C         144.0967  143.7338  164.3320 C.3     1  UNL1        0.0286
      3 C         142.9973  144.7379  164.1497 C.3     1  UNL1        0.0193
      4 C         142.3035  144.8582  162.8252 C.3     1  UNL1        0.0700
      5 C         142.7091  143.9745  161.6831 C.3     1  UNL1        0.0193
      6 C         143.8085  142.9705  161.8653 C.3     1  UNL1        0.0286
      7 C         142.9003  144.2933  162.8772 C.3     1  UNL1        0.1562
      8 O         143.8944  143.3854  163.0420 O.3     1  UNL1       -0.3572
      9 N         141.2041  145.8622  162.6429 N.3     1  UNL1       -0.2926
     10 H         141.1785  146.0938  161.6499 H       1  UNL1        0.1236
     11 C         139.8001  145.5181  163.0436 C.3     1  UNL1        0.1152
     12 C         139.2518  144.1517  162.7568 C.ar    1  UNL1        0.0765
     13 C         138.8503  143.2521  163.8880 C.ar    1  UNL1        0.0193
     14 C         138.3020  141.8857  163.6012 C.ar    1  UNL1        0.0411
     15 C         138.1552  141.4189  162.1832 C.ar    1  UNL1        0.1708
     16 C         138.5567  142.3185  161.0521 C.ar    1  UNL1        0.1682
     17 N         139.1051  143.6850  161.3389 N.ar    1  UNL1       -0.2304
     18 N         138.4100  141.8518  159.6341 N.am    1  UNL1       -0.2639
     19 C         137.8616  140.4853  159.3473 C.2     1  UNL1        0.2718
     20 O         137.7149  140.0185  157.9294 O.2     1  UNL1       -0.2707
     21 C         137.4601  139.5857  160.4784 C.3     1  UNL1        0.2898
     22 O         137.6069  140.0525  161.8964 O.3     1  UNL1       -0.4628
     23 H         138.6735  142.4422  158.8918 H       1  UNL1        0.1565
     24 C         145.6017  141.8461  163.3721 C.3     1  UNL1        0.0319
     25 C         145.3363  140.5697  164.1138 C.3     1  UNL1        0.0304
     26 C         141.8583  140.5543  166.9693 C.ar    1  UNL1        0.1595
     27 N         143.0177  140.5594  166.0175 N.ar    1  UNL1       -0.2272
     28 C         142.9531  139.7557  164.7525 C.ar    1  UNL1        0.0965
     29 C         144.1124  139.7608  163.8007 C.ar    1  UNL1       -0.0014
     30 C         144.0479  138.9572  162.5358 C.ar    1  UNL1        0.0179
     31 C         142.8240  138.1484  162.2228 C.ar    1  UNL1        0.0986
     32 N         141.6647  138.1433  163.1746 N.ar    1  UNL1       -0.2423
     33 C         141.7292  138.9470  164.4395 C.ar    1  UNL1        0.1010
     34 C         140.5699  138.9419  165.3913 C.ar    1  UNL1        0.0531
     35 C         140.6344  139.7455  166.6562 C.ar    1  UNL1        0.1730
     36 F         139.4751  139.7404  167.6080 F       1  UNL1       -0.2012
     37 C         141.0244  142.5455  168.4149 C.3     1  UNL1        0.1137
     38 N         141.9229  141.3580  168.2341 N.pl3   1  UNL1       -0.2880
     39 C         142.8859  140.9742  169.3183 C.3     1  UNL1        0.1137
@<TRIPOS>BOND
     1    37    38    1
     2    38    39    1
     3    38    26    1
     4    26    27   ar
     5    27    28   ar
     6    28    29   ar
     7    29    25    1
     8    25    24    1
     9    24     1    1
    10     1     2    1
    11     2     3    1
    12     3     4    1
    13     4     9    1
    14     9    11    1
    15    11    12    1
    16    12    13   ar
    17    13    14   ar
    18    14    15   ar
    19    15    16   ar
    20    16    17   ar
    21    16    18    1
    22    18    19   am
    23    19    20    2
    24    19    21    1
    25    21    22    1
    26     4     5    1
    27     5     6    1
    28     4     7    1
    29     7     8    1
    30    29    30   ar
    31    30    31   ar
    32    31    32   ar
    33    32    33   ar
    34    33    34   ar
    35    34    35   ar
    36    35    36    1
    37    35    26   ar
    38    33    28   ar
    39     6     1    1
    40     8     1    1
    41    17    12   ar
    42    22    15    1
    43     9    10    1
    44    18    23    1
@<TRIPOS>MOLECULE
*****
 39 44 0 0 0
SMALL
GASTEIGER

@<TRIPOS>ATOM
      1 C         144.4386  139.6274  163.7661 C.3     1  UNL1        0.0932
      2 C         143.4807  139.2547  164.8586 C.3     1  UNL1        0.0286
      3 C         142.2923  138.3922  164.5522 C.3     1  UNL1        0.0193
      4 C         142.0618  137.9025  163.1532 C.3     1  UNL1        0.0700
      5 C         143.0196  138.2753  162.0607 C.3     1  UNL1        0.0193
      6 C         144.2080  139.1378  162.3671 C.3     1  UNL1        0.0286
      7 C         142.7270  138.3728  163.2727 C.3     1  UNL1        0.1562
      8 O         143.8016  139.1526  163.5498 O.3     1  UNL1       -0.3572
      9 N         140.8734  137.0401  162.8468 N.3     1  UNL1       -0.2926
     10 H         140.6840  136.4911  163.6852 H       1  UNL1        0.1236
     11 C         139.5745  137.6702  162.4392 C.3     1  UNL1        0.1152
     12 C         139.1499  138.9739  163.0474 C.ar    1  UNL1        0.0765
     13 C         138.6049  139.0075  164.4445 C.ar    1  UNL1        0.0193
     14 C         138.1803  140.3112  165.0527 C.ar    1  UNL1        0.0411
     15 C         138.3007  141.5814  164.2639 C.ar    1  UNL1        0.1708
     16 C         138.8457  141.5478  162.8668 C.ar    1  UNL1        0.1682
     17 N         139.2703  140.2440  162.2586 N.ar    1  UNL1       -0.2304
     18 N         138.9661  142.8179  162.0780 N.am    1  UNL1       -0.2639
     19 C         138.5415  144.1217  162.6862 C.2     1  UNL1        0.2718
     20 O         138.6619  145.3918  161.8974 O.2     1  UNL1       -0.2707
     21 C         137.9965  144.1553  164.0833 C.3     1  UNL1        0.2898
     22 O         137.8761  142.8851  164.8721 O.3     1  UNL1       -0.4628
     23 H         139.3238  142.7958  161.1610 H       1  UNL1        0.1565
     24 C         145.6269  140.4899  164.0725 C.3     1  UNL1        0.0319
     25 C         145.6835  141.8985  163.5601 C.3     1  UNL1        0.0304
     26 C         144.1107  142.5300  159.3915 C.ar    1  UNL1        0.1595
     27 N         144.6350  142.3195  160.7810 N.ar    1  UNL1       -0.2272
     28 C         143.8908  142.8806  161.9564 C.ar    1  UNL1        0.0965
     29 C         144.4151  142.6701  163.3459 C.ar    1  UNL1       -0.0014
     30 C         143.6710  143.2313  164.5213 C.ar    1  UNL1        0.0179
     31 C         142.4027  144.0029  164.3071 C.ar    1  UNL1        0.0986
     32 N         141.8785  144.2134  162.9175 N.ar    1  UNL1       -0.2423
     33 C         142.6225  143.6523  161.7422 C.ar    1  UNL1        0.1010
     34 C         142.0983  143.8627  160.3526 C.ar    1  UNL1        0.0531
     35 C         142.8423  143.3016  159.1773 C.ar    1  UNL1        0.1730
     36 F         142.3181  143.5121  157.7877 F       1  UNL1       -0.2012
     37 C         146.0650  142.6791  157.6860 C.3     1  UNL1        0.1137
     38 N         144.8548  141.9688  158.2161 N.pl3   1  UNL1       -0.2880
     39 C         144.3886  140.6975  157.5708 C.3     1  UNL1        0.1137
@<TRIPOS>BOND
     1    37    38    1
     2    38    39    1
     3    38    26    1
     4    26    27   ar
     5    27    28   ar
     6    28    29   ar
     7    29    25    1
     8    25    24    1
     9    24     1    1
    10     1     2    1
    11     2     3    1
    12     3     4    1
    13     4     9    1
    14     9    11    1
    15    11    12    1
    16    12    13   ar
    17    13    14   ar
    18    14    15   ar
    19    15    16   ar
    20    16    17   ar
    21    16    18    1
    22    18    19   am
    23    19    20    2
    24    19    21    1
    25    21    22    1
    26     4     5    1
    27     5     6    1
    28     4     7    1
    29     7     8    1
    30    29    30   ar
    31    30    31   ar
    32    31    32   ar
    33    32    33   ar
    34    33    34   ar
    35    34    35   ar
    36    35    36    1
    37    35    26   ar
    38    33    28   ar
    39     6     1    1
    40     8     1    1
    41    17    12   ar
    42    22    15    1
    43     9    10    1
    44    18    23    1
@<TRIPOS>MOLECULE
*****
 39 44 0 0 0
SMALL
GASTEIGER

@<TRIPOS>ATOM
      1 C         142.5486  144.5090  163.5429 C.3     1  UNL1        0.0932
      2 C         141.2797  144.4999  164.3428 C.3     1  UNL1        0.0286
      3 C         139.9602  144.3147  163.6540 C.3     1  UNL1        0.0193
      4 C         139.9096  144.1386  162.1652 C.3     1  UNL1        0.0700
      5 C         141.1784  144.1477  161.3653 C.3     1  UNL1        0.0193
      6 C         142.4980  144.3329  162.0542 C.3     1  UNL1        0.0286
      7 C         140.6562  144.2368  162.4982 C.3     1  UNL1        0.1562
      8 O         141.8494  144.4043  163.1211 O.3     1  UNL1       -0.3572
      9 N         138.5901  143.9534  161.4763 N.3     1  UNL1       -0.2926
     10 H         138.5828  144.5886  160.6783 H       1  UNL1        0.1236
     11 C         138.1981  142.6016  160.9574 C.3     1  UNL1        0.1152
     12 C         138.5020  141.3725  161.7616 C.ar    1  UNL1        0.0765
     13 C         139.2967  140.2554  161.1529 C.ar    1  UNL1        0.0193
     14 C         139.6006  139.0262  161.9571 C.ar    1  UNL1        0.0411
     15 C         139.1099  138.9142  163.3702 C.ar    1  UNL1        0.1708
     16 C         138.3153  140.0313  163.9790 C.ar    1  UNL1        0.1682
     17 N         138.0113  141.2605  163.1746 N.ar    1  UNL1       -0.2304
     18 N         137.8245  139.9193  165.3919 N.am    1  UNL1       -0.2639
     19 C         138.1285  138.6901  166.1963 C.2     1  UNL1        0.2718
     20 O         137.6378  138.5781  167.6093 O.2     1  UNL1       -0.2707
     21 C         138.9231  137.5730  165.5875 C.3     1  UNL1        0.2898
     22 O         139.4138  137.6851  164.1744 O.3     1  UNL1       -0.4628
     23 H         137.3030  140.6525  165.7915 H       1  UNL1        0.1565
     24 C         143.8681  144.6942  164.2318 C.3     1  UNL1        0.0319
     25 C         144.5175  143.5375  164.9321 C.3     1  UNL1        0.0304
     26 C         141.9623  141.6907  168.1430 C.ar    1  UNL1        0.1595
     27 N         142.8140  142.3063  167.0727 N.ar    1  UNL1       -0.2272
     28 C         143.1219  141.5355  165.8232 C.ar    1  UNL1        0.0965
     29 C         143.9736  142.1511  164.7529 C.ar    1  UNL1       -0.0014
     30 C         144.2814  141.3804  163.5035 C.ar    1  UNL1        0.0179
     31 C         143.7375  139.9940  163.3243 C.ar    1  UNL1        0.0986
     32 N         142.8858  139.3784  164.3947 N.ar    1  UNL1       -0.2423
     33 C         142.5779  140.1491  165.6441 C.ar    1  UNL1        0.1010
     34 C         141.7262  139.5335  166.7144 C.ar    1  UNL1        0.0531
     35 C         141.4184  140.3043  167.9638 C.ar    1  UNL1        0.1730
     36 F         140.5667  139.6887  169.0342 F       1  UNL1       -0.2012
     37 C         142.7572  142.8170  170.3452 C.3     1  UNL1        0.1137
     38 N         141.6545  142.4615  169.3925 N.pl3   1  UNL1       -0.2880
     39 C         140.2439  142.8767  169.6892 C.3     1  UNL1        0.1137
@<TRIPOS>BOND
     1    37    38    1
     2    38    39    1
     3    38    26    1
     4    26    27   ar
     5    27    28   ar
     6    28    29   ar
     7    29    25    1
     8    25    24    1
     9    24     1    1
    10     1     2    1
    11     2     3    1
    12     3     4    1
    13     4     9    1
    14     9    11    1
    15    11    12    1
    16    12    13   ar
    17    13    14   ar
    18    14    15   ar
    19    15    16   ar
    20    16    17   ar
    21    16    18    1
    22    18    19   am
    23    19    20    2
    24    19    21    1
    25    21    22    1
    26     4     5    1
    27     5     6    1
    28     4     7    1
    29     7     8    1
    30    29    30   ar
    31    30    31   ar
    32    31    32   ar
    33    32    33   ar
    34    33    34   ar
    35    34    35   ar
    36    35    36    1
    37    35    26   ar
    38    33    28   ar
    39     6     1    1
    40     8     1    1
    41    17    12   ar
    42    22    15    1
    43     9    10    1
    44    18    23    1
@<TRIPOS>MOLECULE
*****
 39 44 0 0 0
SMALL
GASTEIGER

@<TRIPOS>ATOM
      1 C         142.9655  144.5719  163.5969 C.3     1  UNL1        0.0932
      2 C         143.2870  144.1899  162.1824 C.3     1  UNL1        0.0286
      3 C         142.2024  144.1674  161.1466 C.3     1  UNL1        0.0193
      4 C         140.7962  144.5269  161.5252 C.3     1  UNL1        0.0700
      5 C         140.4746  144.9089  162.9396 C.3     1  UNL1        0.0193
      6 C         141.5593  144.9314  163.9755 C.3     1  UNL1        0.0286
      7 C         141.3569  144.5537  162.1276 C.3     1  UNL1        0.1562
      8 O         142.3377  144.5740  163.0642 O.3     1  UNL1       -0.3572
      9 N         139.7115  144.5045  160.4894 N.3     1  UNL1       -0.2926
     10 H         140.1309  144.8259  159.6169 H       1  UNL1        0.1236
     11 C         138.9966  143.2226  160.1797 C.3     1  UNL1        0.1152
     12 C         138.8057  142.1922  161.2528 C.ar    1  UNL1        0.0765
     13 C         137.7383  142.3786  162.2902 C.ar    1  UNL1        0.0193
     14 C         137.5474  141.3481  163.3634 C.ar    1  UNL1        0.0411
     15 C         138.4238  140.1313  163.3992 C.ar    1  UNL1        0.1708
     16 C         139.4911  139.9449  162.3618 C.ar    1  UNL1        0.1682
     17 N         139.6820  140.9754  161.2886 N.ar    1  UNL1       -0.2304
     18 N         140.3675  138.7281  162.3976 N.am    1  UNL1       -0.2639
     19 C         140.1765  137.6976  163.4708 C.2     1  UNL1        0.2718
     20 O         141.0529  136.4808  163.5066 O.2     1  UNL1       -0.2707
     21 C         139.1092  137.8839  164.5082 C.3     1  UNL1        0.2898
     22 O         138.2328  139.1008  164.4723 O.3     1  UNL1       -0.4628
     23 H         141.0680  138.6058  161.7167 H       1  UNL1        0.1565
     24 C         144.0502  144.5943  164.6328 C.3     1  UNL1        0.0319
     25 C         144.7957  143.3360  164.9655 C.3     1  UNL1        0.0304
     26 C         141.9838  141.9467  168.1925 C.ar    1  UNL1        0.1595
     27 N         142.9211  142.4098  167.1168 N.ar    1  UNL1       -0.2272
     28 C         143.1761  141.5425  165.9197 C.ar    1  UNL1        0.0965
     29 C         144.1133  142.0056  164.8441 C.ar    1  UNL1       -0.0014
     30 C         144.3683  141.1384  163.6470 C.ar    1  UNL1        0.0179
     31 C         143.6860  139.8082  163.5257 C.ar    1  UNL1        0.0986
     32 N         142.7487  139.3451  164.6013 N.ar    1  UNL1       -0.2423
     33 C         142.4938  140.2123  165.7984 C.ar    1  UNL1        0.1010
     34 C         141.5565  139.7492  166.8740 C.ar    1  UNL1        0.0531
     35 C         141.3015  140.6163  168.0711 C.ar    1  UNL1        0.1730
     36 F         140.3642  140.1533  169.1467 F       1  UNL1       -0.2012
     37 C         140.4127  143.5175  169.5392 C.3     1  UNL1        0.1137
     38 N         141.7289  142.8139  169.3895 N.pl3   1  UNL1       -0.2880
     39 C         142.7902  142.9774  170.4369 C.3     1  UNL1        0.1137
@<TRIPOS>BOND
     1    37    38    1
     2    38    39    1
     3    38    26    1
     4    26    27   ar
     5    27    28   ar
     6    28    29   ar
     7    29    25    1
     8    25    24    1
     9    24     1    1
    10     1     2    1
    11     2     3    1
    12     3     4    1
    13     4     9    1
    14     9    11    1
    15    11    12    1
    16    12    13   ar
    17    13    14   ar
    18    14    15   ar
    19    15    16   ar
    20    16    17   ar
    21    16    18    1
    22    18    19   am
    23    19    20    2
    24    19    21    1
    25    21    22    1
    26     4     5    1
    27     5     6    1
    28     4     7    1
    29     7     8    1
    30    29    30   ar
    31    30    31   ar
    32    31    32   ar
    33    32    33   ar
    34    33    34   ar
    35    34    35   ar
    36    35    36    1
    37    35    26   ar
    38    33    28   ar
    39     6     1    1
    40     8     1    1
    41    17    12   ar
    42    22    15    1
    43     9    10    1
    44    18    23    1
@<TRIPOS>MOLECULE
*****
 39 44 0 0 0
SMALL
GASTEIGER

@<TRIPOS>ATOM
      1 C         142.9981  140.9992  166.4626 C.3     1  UNL1        0.0932
      2 C         143.1684  139.5098  166.4070 C.3     1  UNL1        0.0286
      3 C         143.6969  138.8614  165.1620 C.3     1  UNL1        0.0193
      4 C         144.0552  139.7021  163.9726 C.3     1  UNL1        0.0700
      5 C         143.8850  141.1914  164.0281 C.3     1  UNL1        0.0193
      6 C         143.3564  141.8399  165.2732 C.3     1  UNL1        0.0286
      7 C         143.7693  140.1027  164.6327 C.3     1  UNL1        0.1562
      8 O         143.2913  140.6891  165.7585 O.3     1  UNL1       -0.3572
      9 N         144.5838  139.0537  162.7276 N.3     1  UNL1       -0.2926
     10 H         145.4626  138.6022  162.9811 H       1  UNL1        0.1236
     11 C         143.7602  138.0258  162.0096 C.3     1  UNL1        0.1152
     12 C         142.2859  138.2369  161.8316 C.ar    1  UNL1        0.0765
     13 C         141.3129  137.5188  162.7190 C.ar    1  UNL1        0.0193
     14 C         139.8385  137.7299  162.5410 C.ar    1  UNL1        0.0411
     15 C         139.3372  138.6592  161.4755 C.ar    1  UNL1        0.1708
     16 C         140.3102  139.3773  160.5881 C.ar    1  UNL1        0.1682
     17 N         141.7846  139.1662  160.7662 N.ar    1  UNL1       -0.2304
     18 N         139.8089  140.3066  159.5227 N.am    1  UNL1       -0.2639
     19 C         138.3345  140.5178  159.3447 C.2     1  UNL1        0.2718
     20 O         137.8333  141.4470  158.2792 O.2     1  UNL1       -0.2707
     21 C         137.3615  139.7996  160.2320 C.3     1  UNL1        0.2898
     22 O         137.8629  138.8703  161.2975 O.3     1  UNL1       -0.4628
     23 H         140.4476  140.7779  158.9403 H       1  UNL1        0.1565
     24 C         142.4695  141.6476  167.7076 C.3     1  UNL1        0.0319
     25 C         141.0169  142.0082  167.8067 C.3     1  UNL1        0.0304
     26 C         139.4864  143.2456  163.7599 C.ar    1  UNL1        0.1595
     27 N         139.9966  142.8331  165.1088 N.ar    1  UNL1       -0.2272
     28 C         139.4769  141.5844  165.7575 C.ar    1  UNL1        0.0965
     29 C         139.9871  141.1719  167.1064 C.ar    1  UNL1       -0.0014
     30 C         139.4675  139.9233  167.7551 C.ar    1  UNL1        0.0179
     31 C         138.4378  139.0871  167.0549 C.ar    1  UNL1        0.0986
     32 N         137.9276  139.4995  165.7060 N.ar    1  UNL1       -0.2423
     33 C         138.4472  140.7482  165.0573 C.ar    1  UNL1        0.1010
     34 C         137.9370  141.1607  163.7084 C.ar    1  UNL1        0.0531
     35 C         138.4566  142.4093  163.0597 C.ar    1  UNL1        0.1730
     36 F         137.9464  142.8218  161.7107 F       1  UNL1       -0.2012
     37 C         139.0484  145.4908  162.5281 C.3     1  UNL1        0.1137
     38 N         140.0060  144.4943  163.1112 N.pl3   1  UNL1       -0.2880
     39 C         141.4832  144.7465  163.0456 C.3     1  UNL1        0.1137
@<TRIPOS>BOND
     1    37    38    1
     2    38    39    1
     3    38    26    1
     4    26    27   ar
     5    27    28   ar
     6    28    29   ar
     7    29    25    1
     8    25    24    1
     9    24     1    1
    10     1     2    1
    11     2     3    1
    12     3     4    1
    13     4     9    1
    14     9    11    1
    15    11    12    1
    16    12    13   ar
    17    13    14   ar
    18    14    15   ar
    19    15    16   ar
    20    16    17   ar
    21    16    18    1
    22    18    19   am
    23    19    20    2
    24    19    21    1
    25    21    22    1
    26     4     5    1
    27     5     6    1
    28     4     7    1
    29     7     8    1
    30    29    30   ar
    31    30    31   ar
    32    31    32   ar
    33    32    33   ar
    34    33    34   ar
    35    34    35   ar
    36    35    36    1
    37    35    26   ar
    38    33    28   ar
    39     6     1    1
    40     8     1    1
    41    17    12   ar
    42    22    15    1
    43     9    10    1
    44    18    23    1
