@<TRIPOS>MOLECULE
*****
 34 37 0 0 0
SMALL
GASTEIGER

@<TRIPOS>ATOM
      1 N         139.0167  140.8130  165.8742 N.3     1  UNL1       -0.2653
      2 C         138.0400  140.9259  164.7413 C.3     1  UNL1        0.1036
      3 C         138.0335  142.1510  163.8760 C.3     1  UNL1        0.1470
      4 C         138.0270  143.3762  163.0106 C.3     1  UNL1        0.1035
      5 N         138.9972  144.4885  163.2780 N.3     1  UNL1       -0.2685
      6 C         139.9739  144.3756  164.4109 C.3     1  UNL1        0.1035
      7 C         139.9804  143.1504  165.2763 C.3     1  UNL1        0.1470
      8 C         139.9869  141.9253  166.1416 C.3     1  UNL1        0.1036
      9 O         139.0037  143.2633  164.1434 O.3     1  UNL1       -0.3530
     10 C         139.0232  139.5878  166.7396 C.3     1  UNL1        0.1202
     11 C         138.0705  138.4644  166.4563 C.3     1  UNL1        0.2226
     12 O         138.5239  137.2808  165.6541 O.3     1  UNL1       -0.4740
     13 C         141.1949  137.8738  162.0814 C.ar    1  UNL1        0.0686
     14 C         141.7948  137.6156  163.4319 C.ar    1  UNL1        0.0134
     15 C         140.9045  137.4180  164.6227 C.ar    1  UNL1        0.0376
     16 C         139.4142  137.4784  164.4632 C.ar    1  UNL1        0.1387
     17 C         138.8143  137.7366  163.1129 C.ar    1  UNL1        0.0376
     18 C         139.7046  137.9342  161.9220 C.ar    1  UNL1        0.0134
     19 N         142.9756  138.2691  159.6997 N.1     1  UNL1       -0.1908
     20 C         142.0853  138.0715  160.8906 C.1     1  UNL1        0.1004
     21 C         138.9907  145.7137  162.4127 C.3     1  UNL1        0.0737
     22 C         140.1898  146.0467  161.5751 C.3     1  UNL1        0.0362
     23 C         140.9745  144.9496  160.9190 C.3     1  UNL1        0.0929
     24 N         142.4427  144.8107  161.1927 N.3     1  UNL1       -0.1793
     25 H         142.7272  145.6460  161.7043 H       1  UNL1        0.1488
     26 S         142.9528  143.6328  161.9690 S.O2    1  UNL1        0.0602
     27 O         141.7023  142.8733  161.6383 O.2     1  UNL1       -0.1530
     28 O         144.2033  144.3922  162.2997 O.2     1  UNL1       -0.1530
     29 C         143.4628  142.4550  162.7452 C.ar    1  UNL1        0.1219
     30 C         143.4038  142.4620  164.2440 C.ar    1  UNL1        0.0199
     31 C         143.9138  141.2842  165.0203 C.ar    1  UNL1        0.0014
     32 C         144.4829  140.0992  164.2977 C.ar    1  UNL1        0.0001
     33 C         144.5419  140.0922  162.7988 C.ar    1  UNL1        0.0014
     34 C         144.0319  141.2700  162.0226 C.ar    1  UNL1        0.0199
@<TRIPOS>BOND
     1    19    20    3
     2    20    13    1
     3    13    14   ar
     4    14    15   ar
     5    15    16   ar
     6    16    12    1
     7    12    11    1
     8    11    10    1
     9    10     1    1
    10     1     2    1
    11     2     3    1
    12     3     4    1
    13     4     5    1
    14     5    21    1
    15    21    22    1
    16    22    23    1
    17    23    24    1
    18    24    26    1
    19    26    27    2
    20    26    28    2
    21    26    29    1
    22    29    30   ar
    23    30    31   ar
    24    31    32   ar
    25    32    33   ar
    26    33    34   ar
    27     5     6    1
    28     6     7    1
    29     7     8    1
    30     7     9    1
    31    16    17   ar
    32    17    18   ar
    33    18    13   ar
    34     8     1    1
    35     9     3    1
    36    34    29   ar
    37    24    25    1
@<TRIPOS>MOLECULE
*****
 34 37 0 0 0
SMALL
GASTEIGER

@<TRIPOS>ATOM
      1 N         143.6901  140.7947  163.7347 N.3     1  UNL1       -0.2653
      2 C         143.8277  142.0998  164.4611 C.3     1  UNL1        0.1036
      3 C         142.9557  143.2617  164.0874 C.3     1  UNL1        0.1470
      4 C         142.0837  144.4236  163.7137 C.3     1  UNL1        0.1035
      5 N         141.0741  144.2803  162.6136 N.3     1  UNL1       -0.2685
      6 C         140.9365  142.9751  161.8872 C.3     1  UNL1        0.1035
      7 C         141.8085  141.8133  162.2609 C.3     1  UNL1        0.1470
      8 C         142.6805  140.6514  162.6346 C.3     1  UNL1        0.1036
      9 O         141.9461  143.1184  162.9873 O.3     1  UNL1       -0.3530
     10 C         144.5622  139.6328  164.1084 C.3     1  UNL1        0.1202
     11 C         144.3584  138.9332  165.4195 C.3     1  UNL1        0.2226
     12 O         142.9709  138.6113  165.8901 O.3     1  UNL1       -0.4740
     13 C         141.0306  141.1373  169.0689 C.ar    1  UNL1        0.0686
     14 C         140.7155  141.3794  167.6224 C.ar    1  UNL1        0.0134
     15 C         141.3623  140.5374  166.5628 C.ar    1  UNL1        0.0376
     16 C         142.3241  139.4533  166.9497 C.ar    1  UNL1        0.1387
     17 C         142.6392  139.2112  168.3961 C.ar    1  UNL1        0.0376
     18 C         141.9924  140.0532  169.4557 C.ar    1  UNL1        0.0134
     19 N         139.7370  142.8213  171.1880 N.1     1  UNL1       -0.1908
     20 C         140.3838  141.9793  170.1284 C.1     1  UNL1        0.1004
     21 C         140.2021  145.4421  162.2399 C.3     1  UNL1        0.0737
     22 C         138.7098  145.3194  162.3300 C.3     1  UNL1        0.0362
     23 C         138.0938  144.3534  163.2982 C.3     1  UNL1        0.0929
     24 N         137.3586  143.1487  162.7903 N.3     1  UNL1       -0.1793
     25 H         137.4764  143.1373  161.7772 H       1  UNL1        0.1488
     26 S         137.7275  141.7813  163.2846 S.O2    1  UNL1        0.0602
     27 O         138.1133  142.3651  164.6114 O.2     1  UNL1       -0.1530
     28 O         137.3417  141.1976  161.9578 O.2     1  UNL1       -0.1530
     29 C         138.0963  140.4140  163.7789 C.ar    1  UNL1        0.1219
     30 C         138.0528  140.1104  165.2472 C.ar    1  UNL1        0.0199
     31 C         138.4217  138.7430  165.7416 C.ar    1  UNL1        0.0014
     32 C         138.8341  137.6794  164.7676 C.ar    1  UNL1        0.0001
     33 C         138.8776  137.9831  163.2993 C.ar    1  UNL1        0.0014
     34 C         138.5087  139.3504  162.8049 C.ar    1  UNL1        0.0199
@<TRIPOS>BOND
     1    19    20    3
     2    20    13    1
     3    13    14   ar
     4    14    15   ar
     5    15    16   ar
     6    16    12    1
     7    12    11    1
     8    11    10    1
     9    10     1    1
    10     1     2    1
    11     2     3    1
    12     3     4    1
    13     4     5    1
    14     5    21    1
    15    21    22    1
    16    22    23    1
    17    23    24    1
    18    24    26    1
    19    26    27    2
    20    26    28    2
    21    26    29    1
    22    29    30   ar
    23    30    31   ar
    24    31    32   ar
    25    32    33   ar
    26    33    34   ar
    27     5     6    1
    28     6     7    1
    29     7     8    1
    30     7     9    1
    31    16    17   ar
    32    17    18   ar
    33    18    13   ar
    34     8     1    1
    35     9     3    1
    36    34    29   ar
    37    24    25    1
@<TRIPOS>MOLECULE
*****
 34 37 0 0 0
SMALL
GASTEIGER

@<TRIPOS>ATOM
      1 N         143.6746  140.5641  163.4576 N.3     1  UNL1       -0.2653
      2 C         144.7711  141.3514  162.8037 C.3     1  UNL1        0.1036
      3 C         144.5548  141.9554  161.4479 C.3     1  UNL1        0.1470
      4 C         144.3384  142.5595  160.0920 C.3     1  UNL1        0.1035
      5 N         143.0255  142.3762  159.3901 N.3     1  UNL1       -0.2685
      6 C         141.9289  141.5888  160.0441 C.3     1  UNL1        0.1035
      7 C         142.1453  140.9848  161.3999 C.3     1  UNL1        0.1470
      8 C         142.3617  140.3808  162.7557 C.3     1  UNL1        0.1036
      9 O         143.2418  141.7721  160.7460 O.3     1  UNL1       -0.3530
     10 C         143.8909  139.9600  164.8135 C.3     1  UNL1        0.1202
     11 C         143.1494  138.7172  165.2079 C.3     1  UNL1        0.2226
     12 O         141.7917  138.8216  165.8370 O.3     1  UNL1       -0.4740
     13 C         140.8100  142.3104  168.5043 C.ar    1  UNL1        0.0686
     14 C         140.4042  142.3327  167.0604 C.ar    1  UNL1        0.0134
     15 C         140.7314  141.1698  166.1713 C.ar    1  UNL1        0.0376
     16 C         141.4645  139.9845  166.7261 C.ar    1  UNL1        0.1387
     17 C         141.8703  139.9622  168.1699 C.ar    1  UNL1        0.0376
     18 C         141.5431  141.1251  169.0591 C.ar    1  UNL1        0.0134
     19 N         140.1556  144.6362  170.2824 N.1     1  UNL1       -0.1908
     20 C         140.4828  143.4733  169.3934 C.1     1  UNL1        0.1004
     21 C         142.8091  142.9802  158.0343 C.3     1  UNL1        0.0737
     22 C         142.4508  144.4313  157.9082 C.3     1  UNL1        0.0362
     23 C         141.4882  145.0530  158.8760 C.3     1  UNL1        0.0929
     24 N         141.8610  145.1878  160.3226 N.3     1  UNL1       -0.1793
     25 H         142.1356  146.1595  160.4666 H       1  UNL1        0.1488
     26 S         140.8591  144.8583  161.3893 S.O2    1  UNL1        0.0602
     27 O         139.7431  145.1859  160.4421 O.2     1  UNL1       -0.1530
     28 O         141.9751  144.5307  162.3364 O.2     1  UNL1       -0.1530
     29 C         139.8572  144.5289  162.4558 C.ar    1  UNL1        0.1219
     30 C         138.7035  143.6215  162.1465 C.ar    1  UNL1        0.0199
     31 C         137.7015  143.2921  163.2131 C.ar    1  UNL1        0.0014
     32 C         137.8533  143.8699  164.5889 C.ar    1  UNL1        0.0001
     33 C         139.0070  144.7773  164.8982 C.ar    1  UNL1        0.0014
     34 C         140.0090  145.1068  163.8317 C.ar    1  UNL1        0.0199
@<TRIPOS>BOND
     1    19    20    3
     2    20    13    1
     3    13    14   ar
     4    14    15   ar
     5    15    16   ar
     6    16    12    1
     7    12    11    1
     8    11    10    1
     9    10     1    1
    10     1     2    1
    11     2     3    1
    12     3     4    1
    13     4     5    1
    14     5    21    1
    15    21    22    1
    16    22    23    1
    17    23    24    1
    18    24    26    1
    19    26    27    2
    20    26    28    2
    21    26    29    1
    22    29    30   ar
    23    30    31   ar
    24    31    32   ar
    25    32    33   ar
    26    33    34   ar
    27     5     6    1
    28     6     7    1
    29     7     8    1
    30     7     9    1
    31    16    17   ar
    32    17    18   ar
    33    18    13   ar
    34     8     1    1
    35     9     3    1
    36    34    29   ar
    37    24    25    1
@<TRIPOS>MOLECULE
*****
 34 37 0 0 0
SMALL
GASTEIGER

@<TRIPOS>ATOM
      1 N         138.7098  141.1813  161.3204 N.3     1  UNL1       -0.2653
      2 C         138.2190  142.0128  162.4683 C.3     1  UNL1        0.1036
      3 C         139.1199  143.0376  163.0912 C.3     1  UNL1        0.1470
      4 C         140.0208  144.0625  163.7142 C.3     1  UNL1        0.1035
      5 N         141.4125  144.2559  163.1892 N.3     1  UNL1       -0.2685
      6 C         141.9033  143.4244  162.0412 C.3     1  UNL1        0.1035
      7 C         141.0024  142.3996  161.4183 C.3     1  UNL1        0.1470
      8 C         140.1015  141.3748  160.7954 C.3     1  UNL1        0.1036
      9 O         140.5116  143.2310  162.5662 O.3     1  UNL1       -0.3530
     10 C         137.8089  140.1564  160.6975 C.3     1  UNL1        0.1202
     11 C         137.6455  138.8113  161.3408 C.3     1  UNL1        0.2226
     12 O         138.7833  137.8337  161.3345 O.3     1  UNL1       -0.4740
     13 C         141.8918  137.9779  164.5850 C.ar    1  UNL1        0.0686
     14 C         140.4457  137.7928  164.9378 C.ar    1  UNL1        0.0134
     15 C         139.4095  137.7448  163.8543 C.ar    1  UNL1        0.0376
     16 C         139.8194  137.8818  162.4180 C.ar    1  UNL1        0.1387
     17 C         141.2655  138.0669  162.0651 C.ar    1  UNL1        0.0376
     18 C         142.3017  138.1150  163.1486 C.ar    1  UNL1        0.0134
     19 N         143.9641  138.0741  166.7520 N.1     1  UNL1       -0.1908
     20 C         142.9280  138.0260  165.6685 C.1     1  UNL1        0.1004
     21 C         142.3134  145.2807  163.8121 C.3     1  UNL1        0.0737
     22 C         143.7866  145.0188  163.9184 C.3     1  UNL1        0.0362
     23 C         144.3324  144.2734  165.1001 C.3     1  UNL1        0.0929
     24 N         144.2489  142.7765  165.1463 N.3     1  UNL1       -0.1793
     25 H         145.1385  142.4433  165.5179 H       1  UNL1        0.1488
     26 S         143.1688  142.1099  165.9458 S.O2    1  UNL1        0.0602
     27 O         142.6731  141.4264  164.7061 O.2     1  UNL1       -0.1530
     28 O         143.6646  142.7933  167.1856 O.2     1  UNL1       -0.1530
     29 C         142.0888  141.4433  166.7452 C.ar    1  UNL1        0.1219
     30 C         140.7058  141.3167  166.1784 C.ar    1  UNL1        0.0199
     31 C         139.6257  140.6501  166.9778 C.ar    1  UNL1        0.0014
     32 C         139.9286  140.1100  168.3440 C.ar    1  UNL1        0.0001
     33 C         141.3117  140.2366  168.9108 C.ar    1  UNL1        0.0014
     34 C         142.3917  140.9032  168.1114 C.ar    1  UNL1        0.0199
@<TRIPOS>BOND
     1    19    20    3
     2    20    13    1
     3    13    14   ar
     4    14    15   ar
     5    15    16   ar
     6    16    12    1
     7    12    11    1
     8    11    10    1
     9    10     1    1
    10     1     2    1
    11     2     3    1
    12     3     4    1
    13     4     5    1
    14     5    21    1
    15    21    22    1
    16    22    23    1
    17    23    24    1
    18    24    26    1
    19    26    27    2
    20    26    28    2
    21    26    29    1
    22    29    30   ar
    23    30    31   ar
    24    31    32   ar
    25    32    33   ar
    26    33    34   ar
    27     5     6    1
    28     6     7    1
    29     7     8    1
    30     7     9    1
    31    16    17   ar
    32    17    18   ar
    33    18    13   ar
    34     8     1    1
    35     9     3    1
    36    34    29   ar
    37    24    25    1
@<TRIPOS>MOLECULE
*****
 34 37 0 0 0
SMALL
GASTEIGER

@<TRIPOS>ATOM
      1 N         141.2464  139.2280  163.2294 N.3     1  UNL1       -0.2653
      2 C         142.5370  139.9541  163.4682 C.3     1  UNL1        0.1036
      3 C         143.0474  140.9308  162.4507 C.3     1  UNL1        0.1470
      4 C         143.5579  141.9076  161.4331 C.3     1  UNL1        0.1035
      5 N         142.7778  142.1582  160.1767 N.3     1  UNL1       -0.2685
      6 C         141.4871  141.4320  159.9378 C.3     1  UNL1        0.1035
      7 C         140.9766  140.4553  160.9554 C.3     1  UNL1        0.1470
      8 C         140.4662  139.4786  161.9730 C.3     1  UNL1        0.1036
      9 O         142.2672  141.1814  161.1942 O.3     1  UNL1       -0.3530
     10 C         140.7358  138.2513  164.2470 C.3     1  UNL1        0.1202
     11 C         139.2967  138.2903  164.6680 C.3     1  UNL1        0.2226
     12 O         138.6945  139.5720  165.1628 O.3     1  UNL1       -0.4740
     13 C         140.7576  141.9272  168.3949 C.ar    1  UNL1        0.0686
     14 C         139.9872  140.6886  168.7449 C.ar    1  UNL1        0.0134
     15 C         139.2995  139.9036  167.6676 C.ar    1  UNL1        0.0376
     16 C         139.3822  140.3570  166.2401 C.ar    1  UNL1        0.1387
     17 C         140.1526  141.5955  165.8901 C.ar    1  UNL1        0.0376
     18 C         140.8403  142.3806  166.9675 C.ar    1  UNL1        0.0134
     19 N         142.1330  143.4972  170.5497 N.1     1  UNL1       -0.1908
     20 C         141.4453  142.7122  169.4723 C.1     1  UNL1        0.1004
     21 C         143.2882  143.1349  159.1591 C.3     1  UNL1        0.0737
     22 C         142.3228  143.9647  158.3657 C.3     1  UNL1        0.0362
     23 C         141.4703  144.9882  159.0555 C.3     1  UNL1        0.0929
     24 N         141.7042  145.3069  160.5025 N.3     1  UNL1       -0.1793
     25 H         141.8067  146.3196  160.5681 H       1  UNL1        0.1488
     26 S         140.6894  144.9067  161.5322 S.O2    1  UNL1        0.0602
     27 O         141.7575  144.9080  162.5853 O.2     1  UNL1       -0.1530
     28 O         139.6213  144.9055  160.4791 O.2     1  UNL1       -0.1530
     29 C         139.6747  144.5066  162.5618 C.ar    1  UNL1        0.1219
     30 C         139.7032  145.1313  163.9252 C.ar    1  UNL1        0.0199
     31 C         138.6884  144.7312  164.9549 C.ar    1  UNL1        0.0014
     32 C         137.6452  143.7064  164.6212 C.ar    1  UNL1        0.0001
     33 C         137.6167  143.0816  163.2577 C.ar    1  UNL1        0.0014
     34 C         138.6315  143.4818  162.2281 C.ar    1  UNL1        0.0199
@<TRIPOS>BOND
     1    19    20    3
     2    20    13    1
     3    13    14   ar
     4    14    15   ar
     5    15    16   ar
     6    16    12    1
     7    12    11    1
     8    11    10    1
     9    10     1    1
    10     1     2    1
    11     2     3    1
    12     3     4    1
    13     4     5    1
    14     5    21    1
    15    21    22    1
    16    22    23    1
    17    23    24    1
    18    24    26    1
    19    26    27    2
    20    26    28    2
    21    26    29    1
    22    29    30   ar
    23    30    31   ar
    24    31    32   ar
    25    32    33   ar
    26    33    34   ar
    27     5     6    1
    28     6     7    1
    29     7     8    1
    30     7     9    1
    31    16    17   ar
    32    17    18   ar
    33    18    13   ar
    34     8     1    1
    35     9     3    1
    36    34    29   ar
    37    24    25    1
@<TRIPOS>MOLECULE
*****
 34 37 0 0 0
SMALL
GASTEIGER

@<TRIPOS>ATOM
      1 N         141.2829  141.4594  166.3565 N.3     1  UNL1       -0.2653
      2 C         139.8123  141.2225  166.5331 C.3     1  UNL1        0.1036
      3 C         139.0839  140.3006  165.6007 C.3     1  UNL1        0.1470
      4 C         138.3554  139.3788  164.6681 C.3     1  UNL1        0.1035
      5 N         139.0975  138.6939  163.5590 N.3     1  UNL1       -0.2685
      6 C         140.5682  138.9309  163.3824 C.3     1  UNL1        0.1035
      7 C         141.2966  139.8527  164.3149 C.3     1  UNL1        0.1470
      8 C         142.0250  140.7746  165.2474 C.3     1  UNL1        0.1036
      9 O         139.8260  139.6158  164.4915 O.3     1  UNL1       -0.3530
     10 C         142.0114  142.3813  167.2890 C.3     1  UNL1        0.1202
     11 C         143.5098  142.3545  167.3514 C.3     1  UNL1        0.2226
     12 O         144.3115  143.3381  166.5515 O.3     1  UNL1       -0.4740
     13 C         144.6314  142.8778  162.0866 C.ar    1  UNL1        0.0686
     14 C         145.3652  141.9338  162.9924 C.ar    1  UNL1        0.0134
     15 C         145.2586  142.0872  164.4807 C.ar    1  UNL1        0.0376
     16 C         144.4182  143.1847  165.0632 C.ar    1  UNL1        0.1387
     17 C         143.6844  144.1286  164.1575 C.ar    1  UNL1        0.0376
     18 C         143.7910  143.9752  162.6691 C.ar    1  UNL1        0.0134
     19 N         144.8447  142.5708  159.1100 N.1     1  UNL1       -0.1908
     20 C         144.7381  142.7243  160.5983 C.1     1  UNL1        0.1004
     21 C         138.3691  137.7721  162.6265 C.3     1  UNL1        0.0737
     22 C         138.0683  138.2087  161.2233 C.3     1  UNL1        0.0362
     23 C         137.5502  139.5921  160.9631 C.3     1  UNL1        0.0929
     24 N         138.5086  140.7365  160.8155 N.3     1  UNL1       -0.1793
     25 H         138.2367  141.2413  159.9719 H       1  UNL1        0.1488
     26 S         138.6336  141.7559  161.9088 S.O2    1  UNL1        0.0602
     27 O         137.1798  141.5837  162.2355 O.2     1  UNL1       -0.1530
     28 O         140.0874  141.9281  161.5821 O.2     1  UNL1       -0.1530
     29 C         138.7585  142.7753  163.0021 C.ar    1  UNL1        0.1219
     30 C         137.5474  143.1870  163.7855 C.ar    1  UNL1        0.0199
     31 C         137.6723  144.2064  164.8788 C.ar    1  UNL1        0.0014
     32 C         139.0083  144.8140  165.1887 C.ar    1  UNL1        0.0001
     33 C         140.2194  144.4022  164.4052 C.ar    1  UNL1        0.0014
     34 C         140.0944  143.3829  163.3119 C.ar    1  UNL1        0.0199
@<TRIPOS>BOND
     1    19    20    3
     2    20    13    1
     3    13    14   ar
     4    14    15   ar
     5    15    16   ar
     6    16    12    1
     7    12    11    1
     8    11    10    1
     9    10     1    1
    10     1     2    1
    11     2     3    1
    12     3     4    1
    13     4     5    1
    14     5    21    1
    15    21    22    1
    16    22    23    1
    17    23    24    1
    18    24    26    1
    19    26    27    2
    20    26    28    2
    21    26    29    1
    22    29    30   ar
    23    30    31   ar
    24    31    32   ar
    25    32    33   ar
    26    33    34   ar
    27     5     6    1
    28     6     7    1
    29     7     8    1
    30     7     9    1
    31    16    17   ar
    32    17    18   ar
    33    18    13   ar
    34     8     1    1
    35     9     3    1
    36    34    29   ar
    37    24    25    1
@<TRIPOS>MOLECULE
*****
 34 37 0 0 0
SMALL
GASTEIGER

@<TRIPOS>ATOM
      1 N         140.2052  137.6767  162.8462 N.3     1  UNL1       -0.2653
      2 C         141.0579  137.9571  161.6444 C.3     1  UNL1        0.1036
      3 C         140.4849  138.7029  160.4759 C.3     1  UNL1        0.1470
      4 C         139.9120  139.4487  159.3073 C.3     1  UNL1        0.1035
      5 N         138.4864  139.9142  159.3406 N.3     1  UNL1       -0.2685
      6 C         137.6338  139.6338  160.5425 C.3     1  UNL1        0.1035
      7 C         138.2067  138.8880  161.7110 C.3     1  UNL1        0.1470
      8 C         138.7797  138.1422  162.8795 C.3     1  UNL1        0.1036
      9 O         139.0594  139.1683  160.5092 O.3     1  UNL1       -0.3530
     10 C         140.7782  136.9309  164.0148 C.3     1  UNL1        0.1202
     11 C         141.7767  137.5978  164.9136 C.3     1  UNL1        0.2226
     12 O         141.7401  139.0856  165.1021 O.3     1  UNL1       -0.4740
     13 C         141.0172  140.8184  169.1916 C.ar    1  UNL1        0.0686
     14 C         142.4196  140.5866  168.7124 C.ar    1  UNL1        0.0134
     15 C         142.6605  140.0090  167.3493 C.ar    1  UNL1        0.0376
     16 C         141.4991  139.6632  166.4652 C.ar    1  UNL1        0.1387
     17 C         140.0968  139.8950  166.9443 C.ar    1  UNL1        0.0376
     18 C         139.8558  140.4726  168.3076 C.ar    1  UNL1        0.0134
     19 N         140.5352  141.9737  171.9179 N.1     1  UNL1       -0.1908
     20 C         140.7762  141.3961  170.5548 C.1     1  UNL1        0.1004
     21 C         137.9135  140.6600  158.1721 C.3     1  UNL1        0.0737
     22 C         138.1972  142.1234  158.0042 C.3     1  UNL1        0.0362
     23 C         138.8414  142.8950  159.1175 C.3     1  UNL1        0.0929
     24 N         138.1103  143.0957  160.4118 N.3     1  UNL1       -0.1793
     25 H         137.4216  142.3465  160.4802 H       1  UNL1        0.1488
     26 S         138.8673  143.1076  161.7068 S.O2    1  UNL1        0.0602
     27 O         137.6880  143.7335  162.3904 O.2     1  UNL1       -0.1530
     28 O         140.0466  142.4817  161.0232 O.2     1  UNL1       -0.1530
     29 C         139.6242  143.1195  163.0017 C.ar    1  UNL1        0.1219
     30 C         138.9533  143.5894  164.2583 C.ar    1  UNL1        0.0199
     31 C         139.7102  143.6013  165.5533 C.ar    1  UNL1        0.0014
     32 C         141.1380  143.1432  165.5917 C.ar    1  UNL1        0.0001
     33 C         141.8089  142.6733  164.3351 C.ar    1  UNL1        0.0014
     34 C         141.0520  142.6614  163.0401 C.ar    1  UNL1        0.0199
@<TRIPOS>BOND
     1    19    20    3
     2    20    13    1
     3    13    14   ar
     4    14    15   ar
     5    15    16   ar
     6    16    12    1
     7    12    11    1
     8    11    10    1
     9    10     1    1
    10     1     2    1
    11     2     3    1
    12     3     4    1
    13     4     5    1
    14     5    21    1
    15    21    22    1
    16    22    23    1
    17    23    24    1
    18    24    26    1
    19    26    27    2
    20    26    28    2
    21    26    29    1
    22    29    30   ar
    23    30    31   ar
    24    31    32   ar
    25    32    33   ar
    26    33    34   ar
    27     5     6    1
    28     6     7    1
    29     7     8    1
    30     7     9    1
    31    16    17   ar
    32    17    18   ar
    33    18    13   ar
    34     8     1    1
    35     9     3    1
    36    34    29   ar
    37    24    25    1
@<TRIPOS>MOLECULE
*****
 34 37 0 0 0
SMALL
GASTEIGER

@<TRIPOS>ATOM
      1 N         142.0057  142.7348  164.5371 N.3     1  UNL1       -0.2653
      2 C         140.8100  142.1905  165.2610 C.3     1  UNL1        0.1036
      3 C         139.6946  141.5488  164.4902 C.3     1  UNL1        0.1470
      4 C         138.5792  140.9071  163.7194 C.3     1  UNL1        0.1035
      5 N         138.6595  140.8097  162.2247 N.3     1  UNL1       -0.2685
      6 C         139.8553  141.3540  161.5008 C.3     1  UNL1        0.1035
      7 C         140.9706  141.9957  162.2716 C.3     1  UNL1        0.1470
      8 C         142.0860  142.6374  163.0424 C.3     1  UNL1        0.1036
      9 O         139.7750  141.4514  162.9955 O.3     1  UNL1       -0.3530
     10 C         143.1212  143.3765  165.3079 C.3     1  UNL1        0.1202
     11 C         143.8769  142.5844  166.3332 C.3     1  UNL1        0.2226
     12 O         143.5616  142.7496  167.7904 O.3     1  UNL1       -0.4740
     13 C         139.8867  140.8211  169.5300 C.ar    1  UNL1        0.0686
     14 C         140.0757  142.3055  169.6345 C.ar    1  UNL1        0.0134
     15 C         141.3006  142.9483  169.0547 C.ar    1  UNL1        0.0376
     16 C         142.3367  142.1068  168.3703 C.ar    1  UNL1        0.1387
     17 C         142.1478  140.6224  168.2658 C.ar    1  UNL1        0.0376
     18 C         140.9228  139.9795  168.8457 C.ar    1  UNL1        0.0134
     19 N         137.4369  139.5355  170.6898 N.1     1  UNL1       -0.1908
     20 C         138.6618  140.1783  170.1099 C.1     1  UNL1        0.1004
     21 C         137.5441  140.1681  161.4539 C.3     1  UNL1        0.0737
     22 C         137.6515  138.7318  161.0345 C.3     1  UNL1        0.0362
     23 C         138.9705  138.0226  161.1186 C.3     1  UNL1        0.0929
     24 N         139.4291  137.4440  162.4243 N.3     1  UNL1       -0.1793
     25 H         139.5002  136.4353  162.2906 H       1  UNL1        0.1488
     26 S         140.7261  137.8931  163.0294 S.O2    1  UNL1        0.0602
     27 O         140.1544  137.6947  164.4019 O.2     1  UNL1       -0.1530
     28 O         141.2978  138.0915  161.6570 O.2     1  UNL1       -0.1530
     29 C         142.0230  138.3421  163.6346 C.ar    1  UNL1        0.1219
     30 C         142.2776  138.1388  165.0987 C.ar    1  UNL1        0.0199
     31 C         143.5746  138.5878  165.7040 C.ar    1  UNL1        0.0014
     32 C         144.6170  139.2403  164.8450 C.ar    1  UNL1        0.0001
     33 C         144.3623  139.4436  163.3808 C.ar    1  UNL1        0.0014
     34 C         143.0654  138.9946  162.7756 C.ar    1  UNL1        0.0199
@<TRIPOS>BOND
     1    19    20    3
     2    20    13    1
     3    13    14   ar
     4    14    15   ar
     5    15    16   ar
     6    16    12    1
     7    12    11    1
     8    11    10    1
     9    10     1    1
    10     1     2    1
    11     2     3    1
    12     3     4    1
    13     4     5    1
    14     5    21    1
    15    21    22    1
    16    22    23    1
    17    23    24    1
    18    24    26    1
    19    26    27    2
    20    26    28    2
    21    26    29    1
    22    29    30   ar
    23    30    31   ar
    24    31    32   ar
    25    32    33   ar
    26    33    34   ar
    27     5     6    1
    28     6     7    1
    29     7     8    1
    30     7     9    1
    31    16    17   ar
    32    17    18   ar
    33    18    13   ar
    34     8     1    1
    35     9     3    1
    36    34    29   ar
    37    24    25    1
@<TRIPOS>MOLECULE
*****
 34 37 0 0 0
SMALL
GASTEIGER

@<TRIPOS>ATOM
      1 N         144.7494  141.0464  163.0551 N.3     1  UNL1       -0.2653
      2 C         144.4624  139.5791  163.1758 C.3     1  UNL1        0.1036
      3 C         143.9064  138.8249  162.0045 C.3     1  UNL1        0.1470
      4 C         143.3503  138.0706  160.8332 C.3     1  UNL1        0.1035
      5 N         143.0813  138.7836  159.5413 N.3     1  UNL1       -0.2685
      6 C         143.3684  140.2510  159.4206 C.3     1  UNL1        0.1035
      7 C         143.9244  141.0052  160.5919 C.3     1  UNL1        0.1470
      8 C         144.4804  141.7594  161.7632 C.3     1  UNL1        0.1036
      9 O         143.6374  139.5379  160.7126 O.3     1  UNL1       -0.3530
     10 C         145.3055  141.8007  164.2264 C.3     1  UNL1        0.1202
     11 C         144.4012  142.6506  165.0689 C.3     1  UNL1        0.2226
     12 O         142.9127  142.5062  164.9522 O.3     1  UNL1       -0.4740
     13 C         140.5413  140.8089  168.3794 C.ar    1  UNL1        0.0686
     14 C         141.5478  139.9542  167.6677 C.ar    1  UNL1        0.0134
     15 C         142.3383  140.5199  166.5253 C.ar    1  UNL1        0.0376
     16 C         142.1223  141.9404  166.0946 C.ar    1  UNL1        0.1387
     17 C         141.1158  142.7951  166.8062 C.ar    1  UNL1        0.0376
     18 C         140.3253  142.2294  167.9486 C.ar    1  UNL1        0.0134
     19 N         138.9604  139.6773  170.6641 N.1     1  UNL1       -0.1908
     20 C         139.7508  140.2431  169.5217 C.1     1  UNL1        0.1004
     21 C         142.5252  138.0294  158.3700 C.3     1  UNL1        0.0737
     22 C         141.0592  138.0996  158.0602 C.3     1  UNL1        0.0362
     23 C         140.0682  138.3102  159.1663 C.3     1  UNL1        0.0929
     24 N         140.2463  139.4491  160.1261 N.3     1  UNL1       -0.1793
     25 H         139.7311  140.2412  159.7420 H       1  UNL1        0.1488
     26 S         139.8118  139.3014  161.5542 S.O2    1  UNL1        0.0602
     27 O         138.9666  138.1217  161.1750 O.2     1  UNL1       -0.1530
     28 O         140.6570  140.4811  161.9334 O.2     1  UNL1       -0.1530
     29 C         139.3773  139.1537  162.9822 C.ar    1  UNL1        0.1219
     30 C         139.2827  137.7902  163.6001 C.ar    1  UNL1        0.0199
     31 C         138.8482  137.6424  165.0282 C.ar    1  UNL1        0.0014
     32 C         138.5083  138.8581  165.8384 C.ar    1  UNL1        0.0001
     33 C         138.6030  140.2217  165.2205 C.ar    1  UNL1        0.0014
     34 C         139.0375  140.3694  163.7924 C.ar    1  UNL1        0.0199
@<TRIPOS>BOND
     1    19    20    3
     2    20    13    1
     3    13    14   ar
     4    14    15   ar
     5    15    16   ar
     6    16    12    1
     7    12    11    1
     8    11    10    1
     9    10     1    1
    10     1     2    1
    11     2     3    1
    12     3     4    1
    13     4     5    1
    14     5    21    1
    15    21    22    1
    16    22    23    1
    17    23    24    1
    18    24    26    1
    19    26    27    2
    20    26    28    2
    21    26    29    1
    22    29    30   ar
    23    30    31   ar
    24    31    32   ar
    25    32    33   ar
    26    33    34   ar
    27     5     6    1
    28     6     7    1
    29     7     8    1
    30     7     9    1
    31    16    17   ar
    32    17    18   ar
    33    18    13   ar
    34     8     1    1
    35     9     3    1
    36    34    29   ar
    37    24    25    1
