@<TRIPOS>MOLECULE
*****
 30 34 0 0 0
SMALL
GASTEIGER

@<TRIPOS>ATOM
      1 C         138.9617  137.6116  165.2717 C.3     1  UNL1        0.1063
      2 N         139.9401  137.8295  164.1557 N.3     1  UNL1       -0.2704
      3 C         139.4697  137.8101  162.7315 C.3     1  UNL1        0.0722
      4 C         140.4481  138.0279  161.6156 C.3     1  UNL1        0.0191
      5 C         141.8968  138.2651  161.9238 C.3     1  UNL1        0.0226
      6 C         142.3671  138.2845  163.3480 C.3     1  UNL1        0.0191
      7 C         141.3888  138.0667  164.4639 C.3     1  UNL1        0.0722
      8 C         143.3682  138.5130  162.0771 C.3     1  UNL1        0.0232
      9 C         143.9563  138.6744  160.7066 C.3     1  UNL1        0.0913
     10 N         142.8483  138.5263  159.7063 N.pl3   1  UNL1       -0.3015
     11 C         141.5755  138.2733  160.4586 C.3     1  UNL1        0.0913
     12 C         142.9885  138.6154  158.2156 C.ar    1  UNL1        0.0978
     13 C         143.4566  139.8137  157.4442 C.ar    1  UNL1        0.0440
     14 C         143.4427  139.4608  155.9864 C.ar    1  UNL1        0.1092
     15 N         142.9660  138.0445  155.8567 N.ar    1  UNL1       -0.2064
     16 S         142.6853  137.5220  157.2346 S.2     1  UNL1        0.0279
     17 C         138.1899  138.7706  165.8294 C.3     1  UNL1        0.1483
     18 O         137.2910  138.5728  167.0138 O.3     1  UNL1       -0.3786
     19 H         136.8703  139.4157  167.2448 H       1  UNL1        0.2108
     20 C         140.0772  140.7905  166.9949 C.3     1  UNL1        0.0306
     21 C         139.2606  141.1374  165.7854 C.ar    1  UNL1       -0.0238
     22 C         138.3170  140.1275  165.2027 C.ar    1  UNL1        0.0015
     23 C         137.5004  140.4745  163.9932 C.ar    1  UNL1       -0.0020
     24 C         137.6275  141.8313  163.3665 C.ar    1  UNL1        0.0060
     25 C         138.5711  142.8412  163.9492 C.ar    1  UNL1        0.0748
     26 C         139.3877  142.4942  165.1587 C.ar    1  UNL1        0.0233
     27 C         140.2279  143.6866  165.5083 C.3     1  UNL1        0.2352
     28 O         139.9307  144.7705  164.5149 O.3     1  UNL1       -0.4404
     29 C         138.9067  144.2480  163.5514 C.2     1  UNL1        0.3413
     30 O         138.3211  145.0002  162.3932 O.2     1  UNL1       -0.2449
@<TRIPOS>BOND
     1    20    21    1
     2    21    22   ar
     3    22    17    1
     4    17    18    1
     5    17     1    1
     6     1     2    1
     7     2     3    1
     8     3     4    1
     9     4     5    1
    10     5     6    1
    11     6     7    1
    12     5     8    1
    13     8     9    1
    14     9    10    1
    15    10    12    1
    16    12    13   ar
    17    13    14   ar
    18    14    15   ar
    19    15    16   ar
    20    10    11    1
    21    22    23   ar
    22    23    24   ar
    23    24    25   ar
    24    25    26   ar
    25    26    27    1
    26    27    28    1
    27    28    29    1
    28    29    30    2
    29    26    21   ar
    30     7     2    1
    31    16    12   ar
    32    29    25    1
    33    11     5    1
    34    18    19    1
@<TRIPOS>MOLECULE
*****
 30 34 0 0 0
SMALL
GASTEIGER

@<TRIPOS>ATOM
      1 C         138.6504  138.6527  162.6520 C.3     1  UNL1        0.1063
      2 N         139.0404  139.1242  164.0215 N.3     1  UNL1       -0.2704
      3 C         140.2582  139.9815  164.2010 C.3     1  UNL1        0.0722
      4 C         140.6481  140.4529  165.5705 C.3     1  UNL1        0.0191
      5 C         139.8204  140.0672  166.7605 C.3     1  UNL1        0.0226
      6 C         138.6027  139.2100  166.5810 C.3     1  UNL1        0.0191
      7 C         138.2127  138.7385  165.2115 C.3     1  UNL1        0.0722
      8 C         139.0942  139.7638  168.0375 C.3     1  UNL1        0.0232
      9 C         139.8301  140.4340  169.1598 C.3     1  UNL1        0.0913
     10 N         141.0111  141.1516  168.5763 N.pl3   1  UNL1       -0.3015
     11 C         141.0051  140.9250  167.0936 C.3     1  UNL1        0.0913
     12 C         142.0207  141.9548  169.3413 C.ar    1  UNL1        0.0978
     13 C         143.4955  141.6883  169.4035 C.ar    1  UNL1        0.0440
     14 C         144.1192  142.7344  170.2791 C.ar    1  UNL1        0.1092
     15 N         143.0298  143.6476  170.7582 N.ar    1  UNL1       -0.2064
     16 S         141.7329  143.1657  170.1785 S.2     1  UNL1        0.0279
     17 C         138.0368  139.6115  161.6752 C.3     1  UNL1        0.1483
     18 O         136.7393  139.2707  161.0040 O.3     1  UNL1       -0.3786
     19 H         136.4843  139.9922  160.4079 H       1  UNL1        0.2108
     20 C         137.3314  142.0794  163.2282 C.3     1  UNL1        0.0306
     21 C         138.3679  142.1450  162.1460 C.ar    1  UNL1       -0.0238
     22 C         138.7206  140.9111  161.3694 C.ar    1  UNL1        0.0015
     23 C         139.7571  140.9767  160.2872 C.ar    1  UNL1       -0.0020
     24 C         140.4410  142.2763  159.9815 C.ar    1  UNL1        0.0060
     25 C         140.0883  143.5102  160.7580 C.ar    1  UNL1        0.0748
     26 C         139.0517  143.4445  161.8402 C.ar    1  UNL1        0.0233
     27 C         138.9133  144.8154  162.4332 C.3     1  UNL1        0.2352
     28 O         139.8642  145.7283  161.7174 O.3     1  UNL1       -0.4404
     29 C         140.5904  144.9216  160.6821 C.2     1  UNL1        0.3413
     30 O         141.6353  145.4360  159.7368 O.2     1  UNL1       -0.2449
@<TRIPOS>BOND
     1    20    21    1
     2    21    22   ar
     3    22    17    1
     4    17    18    1
     5    17     1    1
     6     1     2    1
     7     2     3    1
     8     3     4    1
     9     4     5    1
    10     5     6    1
    11     6     7    1
    12     5     8    1
    13     8     9    1
    14     9    10    1
    15    10    12    1
    16    12    13   ar
    17    13    14   ar
    18    14    15   ar
    19    15    16   ar
    20    10    11    1
    21    22    23   ar
    22    23    24   ar
    23    24    25   ar
    24    25    26   ar
    25    26    27    1
    26    27    28    1
    27    28    29    1
    28    29    30    2
    29    26    21   ar
    30     7     2    1
    31    16    12   ar
    32    29    25    1
    33    11     5    1
    34    18    19    1
@<TRIPOS>MOLECULE
*****
 30 34 0 0 0
SMALL
GASTEIGER

@<TRIPOS>ATOM
      1 C         138.2716  140.1696  164.8669 C.3     1  UNL1        0.1063
      2 N         138.6737  141.2966  163.9622 N.3     1  UNL1       -0.2704
      3 C         139.1772  141.0054  162.5796 C.3     1  UNL1        0.0722
      4 C         139.5793  142.1323  161.6751 C.3     1  UNL1        0.0191
      5 C         139.4777  143.5505  162.1531 C.3     1  UNL1        0.0226
      6 C         138.9742  143.8417  163.5357 C.3     1  UNL1        0.0191
      7 C         138.5722  142.7147  164.4402 C.3     1  UNL1        0.0722
      8 C         139.4314  145.0114  162.4904 C.3     1  UNL1        0.0232
      9 C         139.9218  145.7783  161.2981 C.3     1  UNL1        0.0913
     10 N         140.2711  144.7913  160.2238 N.pl3   1  UNL1       -0.3015
     11 C         139.9967  143.4145  160.7522 C.3     1  UNL1        0.0913
     12 C         140.8017  145.1229  158.8607 C.ar    1  UNL1        0.0978
     13 C         140.1604  146.0433  157.8648 C.ar    1  UNL1        0.0440
     14 C         141.0291  146.0816  156.6426 C.ar    1  UNL1        0.1092
     15 N         142.2073  145.1850  156.8830 N.ar    1  UNL1       -0.2064
     16 S         142.0667  144.5925  158.2539 S.2     1  UNL1        0.0279
     17 C         139.2966  139.5035  165.7362 C.3     1  UNL1        0.1483
     18 O         139.9365  138.2212  165.2933 O.3     1  UNL1       -0.3786
     19 H         140.5708  137.9272  165.9657 H       1  UNL1        0.2108
     20 C         141.7060  141.2826  165.9086 C.3     1  UNL1        0.0306
     21 C         140.8863  141.0092  167.1347 C.ar    1  UNL1       -0.0238
     22 C         139.6816  140.1197  167.0485 C.ar    1  UNL1        0.0015
     23 C         138.8619  139.8463  168.2746 C.ar    1  UNL1       -0.0020
     24 C         139.2468  140.4625  169.5869 C.ar    1  UNL1        0.0060
     25 C         140.4515  141.3520  169.6731 C.ar    1  UNL1        0.0748
     26 C         141.2712  141.6253  168.4470 C.ar    1  UNL1        0.0233
     27 C         142.3974  142.5366  168.8360 C.3     1  UNL1        0.2352
     28 O         142.2737  142.8264  170.3026 O.3     1  UNL1       -0.4404
     29 C         141.0711  142.0943  170.8199 C.2     1  UNL1        0.3413
     30 O         140.5751  142.1029  172.2355 O.2     1  UNL1       -0.2449
@<TRIPOS>BOND
     1    20    21    1
     2    21    22   ar
     3    22    17    1
     4    17    18    1
     5    17     1    1
     6     1     2    1
     7     2     3    1
     8     3     4    1
     9     4     5    1
    10     5     6    1
    11     6     7    1
    12     5     8    1
    13     8     9    1
    14     9    10    1
    15    10    12    1
    16    12    13   ar
    17    13    14   ar
    18    14    15   ar
    19    15    16   ar
    20    10    11    1
    21    22    23   ar
    22    23    24   ar
    23    24    25   ar
    24    25    26   ar
    25    26    27    1
    26    27    28    1
    27    28    29    1
    28    29    30    2
    29    26    21   ar
    30     7     2    1
    31    16    12   ar
    32    29    25    1
    33    11     5    1
    34    18    19    1
@<TRIPOS>MOLECULE
*****
 30 34 0 0 0
SMALL
GASTEIGER

@<TRIPOS>ATOM
      1 C         138.1045  138.5444  162.1377 C.3     1  UNL1        0.1063
      2 N         138.9467  138.8083  163.3507 N.3     1  UNL1       -0.2704
      3 C         138.3307  139.4238  164.5720 C.3     1  UNL1        0.0722
      4 C         139.1728  139.6877  165.7848 C.3     1  UNL1        0.0191
      5 C         140.6310  139.3361  165.7764 C.3     1  UNL1        0.0226
      6 C         141.2470  138.7206  164.5551 C.3     1  UNL1        0.0191
      7 C         140.4049  138.4567  163.3422 C.3     1  UNL1        0.0722
      8 C         142.0949  139.0395  165.9149 C.3     1  UNL1        0.0232
      9 C         142.5258  139.4631  167.2879 C.3     1  UNL1        0.0913
     10 N         141.3282  140.0215  167.9979 N.pl3   1  UNL1       -0.3015
     11 C         140.1572  139.9430  167.0638 C.3     1  UNL1        0.0913
     12 C         141.3057  140.5632  169.3964 C.ar    1  UNL1        0.0978
     13 C         142.2930  141.5271  169.9846 C.ar    1  UNL1        0.0440
     14 C         141.8894  141.7958  171.4040 C.ar    1  UNL1        0.1092
     15 N         140.6525  140.9978  171.6932 N.ar    1  UNL1       -0.2064
     16 S         140.2918  140.2360  170.4524 S.2     1  UNL1        0.0279
     17 C         137.7273  139.6743  161.2262 C.3     1  UNL1        0.1483
     18 O         136.6619  139.4775  160.1889 O.3     1  UNL1       -0.3786
     19 H         136.5417  140.2999  159.6887 H       1  UNL1        0.2108
     20 C         140.3791  140.1207  159.8962 C.3     1  UNL1        0.0306
     21 C         139.7415  141.2243  160.6870 C.ar    1  UNL1       -0.0238
     22 C         138.4156  141.0012  161.3520 C.ar    1  UNL1        0.0015
     23 C         137.7780  142.1049  162.1428 C.ar    1  UNL1       -0.0020
     24 C         138.4663  143.4317  162.2686 C.ar    1  UNL1        0.0060
     25 C         139.7921  143.6548  161.6036 C.ar    1  UNL1        0.0748
     26 C         140.4297  142.5511  160.8128 C.ar    1  UNL1        0.0233
     27 C         141.7327  143.0612  160.2723 C.3     1  UNL1        0.2352
     28 O         141.9004  144.4801  160.7291 O.3     1  UNL1       -0.4404
     29 C         140.7010  144.8469  161.5519 C.2     1  UNL1        0.3413
     30 O         140.4540  146.1731  162.2078 O.2     1  UNL1       -0.2449
@<TRIPOS>BOND
     1    20    21    1
     2    21    22   ar
     3    22    17    1
     4    17    18    1
     5    17     1    1
     6     1     2    1
     7     2     3    1
     8     3     4    1
     9     4     5    1
    10     5     6    1
    11     6     7    1
    12     5     8    1
    13     8     9    1
    14     9    10    1
    15    10    12    1
    16    12    13   ar
    17    13    14   ar
    18    14    15   ar
    19    15    16   ar
    20    10    11    1
    21    22    23   ar
    22    23    24   ar
    23    24    25   ar
    24    25    26   ar
    25    26    27    1
    26    27    28    1
    27    28    29    1
    28    29    30    2
    29    26    21   ar
    30     7     2    1
    31    16    12   ar
    32    29    25    1
    33    11     5    1
    34    18    19    1
@<TRIPOS>MOLECULE
*****
 30 34 0 0 0
SMALL
GASTEIGER

@<TRIPOS>ATOM
      1 C         145.5582  142.5775  164.1622 C.3     1  UNL1        0.1063
      2 N         144.9671  141.5534  163.2392 N.3     1  UNL1       -0.2704
      3 C         144.7032  141.9008  161.8040 C.3     1  UNL1        0.0722
      4 C         144.1122  140.8767  160.8811 C.3     1  UNL1        0.0191
      5 C         143.7851  139.5053  161.3932 C.3     1  UNL1        0.0226
      6 C         144.0491  139.1579  162.8283 C.3     1  UNL1        0.0191
      7 C         144.6401  140.1820  163.7513 C.3     1  UNL1        0.0722
      8 C         143.4082  138.1006  161.7602 C.3     1  UNL1        0.0232
      9 C         142.8573  137.4332  160.5349 C.3     1  UNL1        0.0913
     10 N         142.8938  138.4256  159.4106 N.pl3   1  UNL1       -0.3015
     11 C         143.4671  139.7061  159.9410 C.3     1  UNL1        0.0913
     12 C         142.4371  138.1804  158.0031 C.ar    1  UNL1        0.0978
     13 C         142.6967  136.9439  157.1947 C.ar    1  UNL1        0.0440
     14 C         142.0606  137.1279  155.8488 C.ar    1  UNL1        0.1092
     15 N         141.4078  138.4782  155.8253 N.ar    1  UNL1       -0.2064
     16 S         141.6405  139.1286  157.1568 S.2     1  UNL1        0.0279
     17 C         144.6598  143.4639  164.9729 C.3     1  UNL1        0.1483
     18 O         145.1847  144.1369  166.2064 O.3     1  UNL1       -0.3786
     19 H         144.4806  144.6691  166.6088 H       1  UNL1        0.2108
     20 C         142.4629  141.8580  166.2357 C.3     1  UNL1        0.0306
     21 C         142.1381  142.8743  165.1814 C.ar    1  UNL1       -0.0238
     22 C         143.2365  143.6773  164.5500 C.ar    1  UNL1        0.0015
     23 C         142.9117  144.6937  163.4957 C.ar    1  UNL1       -0.0020
     24 C         141.4885  144.9071  163.0729 C.ar    1  UNL1        0.0060
     25 C         140.3901  144.1042  163.7042 C.ar    1  UNL1        0.0748
     26 C         140.7149  143.0878  164.7585 C.ar    1  UNL1        0.0233
     27 C         139.4306  142.4500  165.1988 C.3     1  UNL1        0.2352
     28 O         138.3121  143.0722  164.4166 O.3     1  UNL1       -0.4404
     29 C         138.9051  144.0945  163.4930 C.2     1  UNL1        0.3413
     30 O         138.1463  144.9560  162.5275 O.2     1  UNL1       -0.2449
@<TRIPOS>BOND
     1    20    21    1
     2    21    22   ar
     3    22    17    1
     4    17    18    1
     5    17     1    1
     6     1     2    1
     7     2     3    1
     8     3     4    1
     9     4     5    1
    10     5     6    1
    11     6     7    1
    12     5     8    1
    13     8     9    1
    14     9    10    1
    15    10    12    1
    16    12    13   ar
    17    13    14   ar
    18    14    15   ar
    19    15    16   ar
    20    10    11    1
    21    22    23   ar
    22    23    24   ar
    23    24    25   ar
    24    25    26   ar
    25    26    27    1
    26    27    28    1
    27    28    29    1
    28    29    30    2
    29    26    21   ar
    30     7     2    1
    31    16    12   ar
    32    29    25    1
    33    11     5    1
    34    18    19    1
@<TRIPOS>MOLECULE
*****
 30 34 0 0 0
SMALL
GASTEIGER

@<TRIPOS>ATOM
      1 C         145.1176  141.7921  162.3653 C.3     1  UNL1        0.1063
      2 N         144.4407  141.4592  163.6619 N.3     1  UNL1       -0.2704
      3 C         143.9054  142.5575  164.5320 C.3     1  UNL1        0.0722
      4 C         143.2285  142.2246  165.8285 C.3     1  UNL1        0.0191
      5 C         143.0869  140.7935  166.2549 C.3     1  UNL1        0.0226
      6 C         143.6222  139.6952  165.3847 C.3     1  UNL1        0.0191
      7 C         144.2991  140.0281  164.0882 C.3     1  UNL1        0.0722
      8 C         142.8729  139.4163  166.8096 C.3     1  UNL1        0.0232
      9 C         142.1589  139.5510  168.1220 C.3     1  UNL1        0.0913
     10 N         141.9316  141.0115  168.3782 N.pl3   1  UNL1       -0.3015
     11 C         142.5051  141.7793  167.2244 C.3     1  UNL1        0.0913
     12 C         141.2504  141.6005  169.5777 C.ar    1  UNL1        0.0978
     13 C         140.2063  142.6773  169.5585 C.ar    1  UNL1        0.0440
     14 C         139.8043  142.9585  170.9759 C.ar    1  UNL1        0.1092
     15 N         140.5999  142.0556  171.8713 N.ar    1  UNL1       -0.2064
     16 S         141.4937  141.2163  171.0071 S.2     1  UNL1        0.0279
     17 C         144.3212  142.3576  161.2270 C.3     1  UNL1        0.1483
     18 O         144.9532  142.5177  159.8761 O.3     1  UNL1       -0.3786
     19 H         144.3062  142.8940  159.2590 H       1  UNL1        0.2108
     20 C         142.1286  140.3293  160.9457 C.3     1  UNL1        0.0306
     21 C         141.7964  141.7488  161.2989 C.ar    1  UNL1       -0.0238
     22 C         142.8927  142.7629  161.4395 C.ar    1  UNL1        0.0015
     23 C         142.5605  144.1824  161.7926 C.ar    1  UNL1       -0.0020
     24 C         141.1320  144.5878  162.0051 C.ar    1  UNL1        0.0060
     25 C         140.0358  143.5737  161.8645 C.ar    1  UNL1        0.0748
     26 C         140.3680  142.1542  161.5114 C.ar    1  UNL1        0.0233
     27 C         139.0843  141.3813  161.4418 C.3     1  UNL1        0.2352
     28 O         137.9588  142.3231  161.7519 O.3     1  UNL1       -0.4404
     29 C         138.5468  143.6780  162.0131 C.2     1  UNL1        0.3413
     30 O         137.7805  144.9195  162.3618 O.2     1  UNL1       -0.2449
@<TRIPOS>BOND
     1    20    21    1
     2    21    22   ar
     3    22    17    1
     4    17    18    1
     5    17     1    1
     6     1     2    1
     7     2     3    1
     8     3     4    1
     9     4     5    1
    10     5     6    1
    11     6     7    1
    12     5     8    1
    13     8     9    1
    14     9    10    1
    15    10    12    1
    16    12    13   ar
    17    13    14   ar
    18    14    15   ar
    19    15    16   ar
    20    10    11    1
    21    22    23   ar
    22    23    24   ar
    23    24    25   ar
    24    25    26   ar
    25    26    27    1
    26    27    28    1
    27    28    29    1
    28    29    30    2
    29    26    21   ar
    30     7     2    1
    31    16    12   ar
    32    29    25    1
    33    11     5    1
    34    18    19    1
@<TRIPOS>MOLECULE
*****
 30 34 0 0 0
SMALL
GASTEIGER

@<TRIPOS>ATOM
      1 C         144.6069  141.1768  161.9804 C.3     1  UNL1        0.1063
      2 N         144.0680  140.9496  163.3618 N.3     1  UNL1       -0.2704
      3 C         143.4322  142.0807  164.1143 C.3     1  UNL1        0.0722
      4 C         142.8934  141.8534  165.4956 C.3     1  UNL1        0.0191
      5 C         142.9904  140.4950  166.1243 C.3     1  UNL1        0.0226
      6 C         143.6262  139.3639  165.3718 C.3     1  UNL1        0.0191
      7 C         144.1650  139.5912  163.9906 C.3     1  UNL1        0.0722
      8 C         143.0160  139.1986  166.8785 C.3     1  UNL1        0.0232
      9 C         142.3728  139.4266  168.2143 C.3     1  UNL1        0.0913
     10 N         141.9497  140.8640  168.2858 N.pl3   1  UNL1       -0.3015
     11 C         142.3314  141.5243  166.9941 C.3     1  UNL1        0.0913
     12 C         141.2651  141.5249  169.4452 C.ar    1  UNL1        0.0978
     13 C         140.2804  142.6533  169.3611 C.ar    1  UNL1        0.0440
     14 C         139.8518  142.9994  170.7563 C.ar    1  UNL1        0.1092
     15 N         140.5715  142.0848  171.7027 N.ar    1  UNL1       -0.2064
     16 S         141.4450  141.1736  170.8923 S.2     1  UNL1        0.0279
     17 C         143.7059  141.0296  160.7903 C.3     1  UNL1        0.1483
     18 O         144.2209  141.3417  159.4165 O.3     1  UNL1       -0.3786
     19 H         143.5163  141.1955  158.7661 H       1  UNL1        0.2108
     20 C         141.5024  143.0437  161.0877 C.3     1  UNL1        0.0306
     21 C         141.1880  141.5774  161.1226 C.ar    1  UNL1       -0.0238
     22 C         142.2897  140.5704  160.9739 C.ar    1  UNL1        0.0015
     23 C         141.9753  139.1041  161.0089 C.ar    1  UNL1       -0.0020
     24 C         140.5592  138.6449  161.1925 C.ar    1  UNL1        0.0060
     25 C         139.4575  139.6519  161.3412 C.ar    1  UNL1        0.0748
     26 C         139.7719  141.1182  161.3063 C.ar    1  UNL1        0.0233
     27 C         138.4865  141.8720  161.4780 C.3     1  UNL1        0.2352
     28 O         137.3777  140.8717  161.6190 O.3     1  UNL1       -0.4404
     29 C         137.9778  139.4996  161.5345 C.2     1  UNL1        0.3413
     30 O         137.2297  138.2028  161.6270 O.2     1  UNL1       -0.2449
@<TRIPOS>BOND
     1    20    21    1
     2    21    22   ar
     3    22    17    1
     4    17    18    1
     5    17     1    1
     6     1     2    1
     7     2     3    1
     8     3     4    1
     9     4     5    1
    10     5     6    1
    11     6     7    1
    12     5     8    1
    13     8     9    1
    14     9    10    1
    15    10    12    1
    16    12    13   ar
    17    13    14   ar
    18    14    15   ar
    19    15    16   ar
    20    10    11    1
    21    22    23   ar
    22    23    24   ar
    23    24    25   ar
    24    25    26   ar
    25    26    27    1
    26    27    28    1
    27    28    29    1
    28    29    30    2
    29    26    21   ar
    30     7     2    1
    31    16    12   ar
    32    29    25    1
    33    11     5    1
    34    18    19    1
@<TRIPOS>MOLECULE
*****
 30 34 0 0 0
SMALL
GASTEIGER

@<TRIPOS>ATOM
      1 C         141.1562  137.9814  161.6379 C.3     1  UNL1        0.1063
      2 N         140.6691  138.3424  163.0100 N.3     1  UNL1       -0.2704
      3 C         141.5583  139.1084  163.9441 C.3     1  UNL1        0.0722
      4 C         141.0713  139.4694  165.3161 C.3     1  UNL1        0.0191
      5 C         139.6950  139.0644  165.7540 C.3     1  UNL1        0.0226
      6 C         138.8057  138.2985  164.8199 C.3     1  UNL1        0.0191
      7 C         139.2928  137.9375  163.4479 C.3     1  UNL1        0.0722
      8 C         138.3504  138.7297  166.3287 C.3     1  UNL1        0.0232
      9 C         138.2914  139.2820  167.7221 C.3     1  UNL1        0.0913
     10 N         139.5995  139.9580  168.0086 N.pl3   1  UNL1       -0.3015
     11 C         140.4669  139.8236  166.7923 C.3     1  UNL1        0.0913
     12 C         139.9742  140.6474  169.2869 C.ar    1  UNL1        0.0978
     13 C         140.1637  142.1241  169.4695 C.ar    1  UNL1        0.0440
     14 C         140.5319  142.3705  170.9025 C.ar    1  UNL1        0.1092
     15 N         140.5701  141.0461  171.6057 N.ar    1  UNL1       -0.2064
     16 S         140.2254  139.9811  170.6071 S.2     1  UNL1        0.0279
     17 C         141.0161  138.9608  160.5105 C.3     1  UNL1        0.1483
     18 O         141.2274  138.5107  159.0953 O.3     1  UNL1       -0.3786
     19 H         141.0999  139.2616  158.4947 H       1  UNL1        0.2108
     20 C         143.1903  140.9876  160.9166 C.3     1  UNL1        0.0306
     21 C         141.7517  141.4038  161.0013 C.ar    1  UNL1       -0.0238
     22 C         140.6646  140.3904  160.7983 C.ar    1  UNL1        0.0015
     23 C         139.2260  140.8067  160.8830 C.ar    1  UNL1       -0.0020
     24 C         138.8745  142.2362  161.1707 C.ar    1  UNL1        0.0060
     25 C         139.9616  143.2495  161.3737 C.ar    1  UNL1        0.0748
     26 C         141.4002  142.8333  161.2890 C.ar    1  UNL1        0.0233
     27 C         142.2487  144.0461  161.5324 C.3     1  UNL1        0.2352
     28 O         141.3346  145.2119  161.7674 O.3     1  UNL1       -0.4404
     29 C         139.9211  144.7195  161.6694 C.2     1  UNL1        0.3413
     30 O         138.6841  145.5512  161.8375 O.2     1  UNL1       -0.2449
@<TRIPOS>BOND
     1    20    21    1
     2    21    22   ar
     3    22    17    1
     4    17    18    1
     5    17     1    1
     6     1     2    1
     7     2     3    1
     8     3     4    1
     9     4     5    1
    10     5     6    1
    11     6     7    1
    12     5     8    1
    13     8     9    1
    14     9    10    1
    15    10    12    1
    16    12    13   ar
    17    13    14   ar
    18    14    15   ar
    19    15    16   ar
    20    10    11    1
    21    22    23   ar
    22    23    24   ar
    23    24    25   ar
    24    25    26   ar
    25    26    27    1
    26    27    28    1
    27    28    29    1
    28    29    30    2
    29    26    21   ar
    30     7     2    1
    31    16    12   ar
    32    29    25    1
    33    11     5    1
    34    18    19    1
@<TRIPOS>MOLECULE
*****
 30 34 0 0 0
SMALL
GASTEIGER

@<TRIPOS>ATOM
      1 C         138.4060  139.1859  166.2070 C.3     1  UNL1        0.1063
      2 N         138.4785  139.2972  164.7129 N.3     1  UNL1       -0.2704
      3 C         137.9658  140.5286  164.0268 C.3     1  UNL1        0.0722
      4 C         138.0383  140.6398  162.5327 C.3     1  UNL1        0.0191
      5 C         138.6236  139.5197  161.7247 C.3     1  UNL1        0.0226
      6 C         139.1363  138.2883  162.4108 C.3     1  UNL1        0.0191
      7 C         139.0637  138.1771  163.9049 C.3     1  UNL1        0.0722
      8 C         139.1790  138.4867  160.7896 C.3     1  UNL1        0.0232
      9 C         139.0521  139.0121  159.3903 C.3     1  UNL1        0.0913
     10 N         138.4182  140.3698  159.4606 N.pl3   1  UNL1       -0.3015
     11 C         138.1533  140.6835  160.9034 C.3     1  UNL1        0.0913
     12 C         138.1042  141.2578  158.2933 C.ar    1  UNL1        0.0978
     13 C         137.1114  140.9679  157.2069 C.ar    1  UNL1        0.0440
     14 C         137.1216  142.1226  156.2495 C.ar    1  UNL1        0.1092
     15 N         138.1207  143.1262  156.7441 N.ar    1  UNL1       -0.2064
     16 S         138.7280  142.5916  158.0073 S.2     1  UNL1        0.0279
     17 C         139.5453  139.6743  167.0517 C.3     1  UNL1        0.1483
     18 O         139.4011  139.7343  168.5435 O.3     1  UNL1       -0.3786
     19 H         140.2229  140.0700  168.9346 H       1  UNL1        0.2108
     20 C         139.9737  142.5549  166.3315 C.3     1  UNL1        0.0306
     21 C         141.0431  141.5431  166.0444 C.ar    1  UNL1       -0.0238
     22 C         140.8289  140.1028  166.4044 C.ar    1  UNL1        0.0015
     23 C         141.8984  139.0909  166.1173 C.ar    1  UNL1       -0.0020
     24 C         143.1819  139.5193  165.4701 C.ar    1  UNL1        0.0060
     25 C         143.3961  140.9596  165.1101 C.ar    1  UNL1        0.0748
     26 C         142.3267  141.9714  165.3972 C.ar    1  UNL1        0.0233
     27 C         142.8186  143.3102  164.9328 C.3     1  UNL1        0.2352
     28 O         144.1921  143.1258  164.3587 O.3     1  UNL1       -0.4404
     29 C         144.5489  141.6730  164.4682 C.2     1  UNL1        0.3413
     30 O         145.8332  141.0440  164.0155 O.2     1  UNL1       -0.2449
@<TRIPOS>BOND
     1    20    21    1
     2    21    22   ar
     3    22    17    1
     4    17    18    1
     5    17     1    1
     6     1     2    1
     7     2     3    1
     8     3     4    1
     9     4     5    1
    10     5     6    1
    11     6     7    1
    12     5     8    1
    13     8     9    1
    14     9    10    1
    15    10    12    1
    16    12    13   ar
    17    13    14   ar
    18    14    15   ar
    19    15    16   ar
    20    10    11    1
    21    22    23   ar
    22    23    24   ar
    23    24    25   ar
    24    25    26   ar
    25    26    27    1
    26    27    28    1
    27    28    29    1
    28    29    30    2
    29    26    21   ar
    30     7     2    1
    31    16    12   ar
    32    29    25    1
    33    11     5    1
    34    18    19    1
