@<TRIPOS>MOLECULE
*****
 35 39 0 0 0
SMALL
GASTEIGER

@<TRIPOS>ATOM
      1 C         141.3598  141.9744  165.3583 C.ar    1  UNL1        0.0908
      2 C         141.0733  142.2360  166.8072 C.ar    1  UNL1        0.1496
      3 O         139.9704  143.2497  166.8859 O.2     1  UNL1       -0.4534
      4 C         139.5753  143.6144  165.4855 C.ar    1  UNL1        0.1454
      5 C         138.5446  144.5624  164.9482 C.ar    1  UNL1        0.0406
      6 C         138.3726  144.7222  163.4667 C.ar    1  UNL1        0.0395
      7 C         139.2313  143.9340  162.5226 C.ar    1  UNL1        0.1311
      8 O         139.0592  144.0939  161.0410 O.3     1  UNL1       -0.5058
      9 C         140.2620  142.9860  163.0600 C.ar    1  UNL1        0.0305
     10 C         140.4340  142.8262  164.5414 C.ar    1  UNL1        0.0421
     11 H         138.4154  144.6861  160.7054 H       1  UNL1        0.2922
     12 C         141.7677  141.5964  167.9728 C.ar    1  UNL1        0.0349
     13 C         142.8098  142.3593  168.7358 C.ar    1  UNL1        0.0061
     14 C         143.5042  141.7196  169.9014 C.ar    1  UNL1        0.0367
     15 C         143.1566  140.3172  170.3041 C.ar    1  UNL1        0.1337
     16 O         143.8510  139.6776  171.4697 O.3     1  UNL1       -0.5055
     17 C         142.1145  139.5544  169.5411 C.ar    1  UNL1        0.0367
     18 C         141.4201  140.1940  168.3755 C.ar    1  UNL1        0.0061
     19 H         144.5020  140.1541  171.9463 H       1  UNL1        0.2922
     20 O         143.8022  141.4923  164.6151 O.2     1  UNL1       -0.2698
     21 C         142.3911  141.0271  164.8206 C.2     1  UNL1        0.2522
     22 N         142.0112  139.6145  164.4882 N.am    1  UNL1       -0.2703
     23 C         142.7397  138.4189  163.9499 C.3     1  UNL1        0.1307
     24 C         141.4739  137.6169  164.0183 C.3     1  UNL1        0.2003
     25 F         141.0940  136.2043  163.6860 F       1  UNL1       -0.2336
     26 C         140.7454  138.8125  164.5567 C.3     1  UNL1        0.1307
     27 C         141.1208  142.1978  162.1159 C.3     1  UNL1        0.0988
     28 N         142.1818  142.8893  161.3121 N.3     1  UNL1       -0.2917
     29 H         141.8326  142.9520  160.3557 H       1  UNL1        0.1236
     30 C         142.6376  144.2653  161.6978 C.3     1  UNL1        0.0960
     31 C         143.5090  144.4562  162.9037 C.3     1  UNL1        0.1029
     32 O         144.6808  143.6037  162.5159 O.3     1  UNL1       -0.3854
     33 C         143.9735  144.9431  164.2443 C.3     1  UNL1        0.0307
     34 C         142.6399  145.3750  163.7102 C.3     1  UNL1        0.0307
     35 H         144.5198  143.2101  161.6441 H       1  UNL1        0.2103
@<TRIPOS>BOND
     1    20    21    2
     2    21     1    1
     3     1     2   ar
     4     2    12    1
     5    12    13   ar
     6    13    14   ar
     7    14    15   ar
     8    15    16    1
     9    15    17   ar
    10    17    18   ar
    11     2     3   ar
    12     3     4   ar
    13     4     5   ar
    14     5     6   ar
    15     6     7   ar
    16     7     8    1
    17     7     9   ar
    18     9    27    1
    19    27    28    1
    20    28    30    1
    21    30    31    1
    22    31    32    1
    23    31    33    1
    24    33    34    1
    25     9    10   ar
    26    21    22   am
    27    22    23    1
    28    23    24    1
    29    24    25    1
    30    24    26    1
    31    10     1   ar
    32    26    22    1
    33    18    12   ar
    34    10     4   ar
    35    34    31    1
    36    16    19    1
    37     8    11    1
    38    28    29    1
    39    32    35    1
@<TRIPOS>MOLECULE
*****
 35 39 0 0 0
SMALL
GASTEIGER

@<TRIPOS>ATOM
      1 C         141.0079  141.1422  165.4772 C.ar    1  UNL1        0.0908
      2 C         140.8989  140.8339  166.9411 C.ar    1  UNL1        0.1496
      3 O         140.0853  139.5827  167.0919 O.2     1  UNL1       -0.4534
      4 C         139.6916  139.1178  165.7212 C.ar    1  UNL1        0.1454
      5 C         138.8875  137.9413  165.2528 C.ar    1  UNL1        0.0406
      6 C         138.6536  137.7288  163.7865 C.ar    1  UNL1        0.0395
      7 C         139.2238  138.6926  162.7886 C.ar    1  UNL1        0.1311
      8 O         138.9899  138.4799  161.3222 O.3     1  UNL1       -0.5058
      9 C         140.0279  139.8690  163.2570 C.ar    1  UNL1        0.0305
     10 C         140.2618  140.0816  164.7233 C.ar    1  UNL1        0.0421
     11 H         138.4877  137.7450  161.0297 H       1  UNL1        0.2922
     12 C         141.4981  141.6358  168.0581 C.ar    1  UNL1        0.0349
     13 C         140.6634  142.6462  168.7877 C.ar    1  UNL1        0.0061
     14 C         141.2627  143.4482  169.9047 C.ar    1  UNL1        0.0367
     15 C         142.6967  143.2398  170.2921 C.ar    1  UNL1        0.1337
     16 O         143.2960  144.0418  171.4092 O.3     1  UNL1       -0.5055
     17 C         143.5314  142.2294  169.5626 C.ar    1  UNL1        0.0367
     18 C         142.9321  141.4274  168.4456 C.ar    1  UNL1        0.0061
     19 H         142.7745  144.6730  171.8649 H       1  UNL1        0.2922
     20 O         141.0387  143.6254  164.7139 O.2     1  UNL1       -0.2698
     21 C         141.7354  142.3067  164.8733 C.2     1  UNL1        0.2522
     22 N         143.1598  142.1524  164.4287 N.am    1  UNL1       -0.2703
     23 C         144.1794  143.0571  163.8027 C.3     1  UNL1        0.1307
     24 C         145.1739  141.9342  163.8000 C.3     1  UNL1        0.2003
     25 F         146.5983  141.7799  163.3554 F       1  UNL1       -0.2336
     26 C         144.1543  141.0295  164.4260 C.3     1  UNL1        0.1307
     27 C         140.5981  140.8329  162.2590 C.3     1  UNL1        0.0988
     28 N         139.6926  141.7798  161.5289 N.3     1  UNL1       -0.2917
     29 H         139.5913  141.4182  160.5805 H       1  UNL1        0.1236
     30 C         138.3077  142.0401  162.0432 C.3     1  UNL1        0.0960
     31 C         138.0406  143.2387  162.9047 C.3     1  UNL1        0.1029
     32 O         138.3336  144.3351  161.9238 O.3     1  UNL1       -0.3854
     33 C         137.6717  144.0565  164.1069 C.3     1  UNL1        0.0307
     34 C         137.6549  142.5585  164.1847 C.3     1  UNL1        0.0307
     35 H         138.5936  143.9473  161.0735 H       1  UNL1        0.2103
@<TRIPOS>BOND
     1    20    21    2
     2    21     1    1
     3     1     2   ar
     4     2    12    1
     5    12    13   ar
     6    13    14   ar
     7    14    15   ar
     8    15    16    1
     9    15    17   ar
    10    17    18   ar
    11     2     3   ar
    12     3     4   ar
    13     4     5   ar
    14     5     6   ar
    15     6     7   ar
    16     7     8    1
    17     7     9   ar
    18     9    27    1
    19    27    28    1
    20    28    30    1
    21    30    31    1
    22    31    32    1
    23    31    33    1
    24    33    34    1
    25     9    10   ar
    26    21    22   am
    27    22    23    1
    28    23    24    1
    29    24    25    1
    30    24    26    1
    31    10     1   ar
    32    26    22    1
    33    18    12   ar
    34    10     4   ar
    35    34    31    1
    36    16    19    1
    37     8    11    1
    38    28    29    1
    39    32    35    1
@<TRIPOS>MOLECULE
*****
 35 39 0 0 0
SMALL
GASTEIGER

@<TRIPOS>ATOM
      1 C         140.9410  141.5047  165.2301 C.ar    1  UNL1        0.0908
      2 C         140.7795  141.9484  166.6538 C.ar    1  UNL1        0.1496
      3 O         139.7367  143.0261  166.6879 O.2     1  UNL1       -0.4534
      4 C         139.2537  143.2485  165.2853 C.ar    1  UNL1        0.1454
      5 C         138.2324  144.1856  164.7122 C.ar    1  UNL1        0.0406
      6 C         137.9554  144.1825  163.2380 C.ar    1  UNL1        0.0395
      7 C         138.6997  143.2422  162.3370 C.ar    1  UNL1        0.1311
      8 O         138.4226  143.2392  160.8628 O.3     1  UNL1       -0.5058
      9 C         139.7210  142.3051  162.9101 C.ar    1  UNL1        0.0305
     10 C         139.9980  142.3082  164.3843 C.ar    1  UNL1        0.0421
     11 H         137.7846  143.8246  160.5047 H       1  UNL1        0.2922
     12 C         141.5291  141.4091  167.8358 C.ar    1  UNL1        0.0349
     13 C         141.1512  140.0808  168.4212 C.ar    1  UNL1        0.0061
     14 C         141.9008  139.5415  169.6033 C.ar    1  UNL1        0.0367
     15 C         143.0283  140.3305  170.1999 C.ar    1  UNL1        0.1337
     16 O         143.7780  139.7912  171.3820 O.3     1  UNL1       -0.5055
     17 C         143.4063  141.6588  169.6145 C.ar    1  UNL1        0.0367
     18 C         142.6566  142.1981  168.4325 C.ar    1  UNL1        0.0061
     19 H         143.5419  138.9615  171.7476 H       1  UNL1        0.2922
     20 O         141.4200  139.0195  164.6436 O.2     1  UNL1       -0.2698
     21 C         141.8805  140.4438  164.7384 C.2     1  UNL1        0.2522
     22 N         143.2807  140.8073  164.3414 N.am    1  UNL1       -0.2703
     23 C         144.4662  140.0497  163.8214 C.3     1  UNL1        0.1307
     24 C         145.2607  141.3214  163.7802 C.3     1  UNL1        0.2003
     25 F         146.6609  141.6849  163.3832 F       1  UNL1       -0.2336
     26 C         144.0752  142.0790  164.3002 C.3     1  UNL1        0.1307
     27 C         140.4653  141.3648  162.0091 C.3     1  UNL1        0.0988
     28 N         139.7240  140.5778  160.9694 N.3     1  UNL1       -0.2917
     29 H         139.9840  140.9682  160.0637 H       1  UNL1        0.1236
     30 C         139.9177  139.0934  160.8729 C.3     1  UNL1        0.0960
     31 C         139.4826  138.2054  162.0008 C.3     1  UNL1        0.1029
     32 O         140.7338  137.4016  162.1970 O.3     1  UNL1       -0.3854
     33 C         138.6129  137.5964  163.0605 C.3     1  UNL1        0.0307
     34 C         138.0803  138.7007  162.1961 C.3     1  UNL1        0.0307
     35 H         141.4074  137.6918  161.5622 H       1  UNL1        0.2103
@<TRIPOS>BOND
     1    20    21    2
     2    21     1    1
     3     1     2   ar
     4     2    12    1
     5    12    13   ar
     6    13    14   ar
     7    14    15   ar
     8    15    16    1
     9    15    17   ar
    10    17    18   ar
    11     2     3   ar
    12     3     4   ar
    13     4     5   ar
    14     5     6   ar
    15     6     7   ar
    16     7     8    1
    17     7     9   ar
    18     9    27    1
    19    27    28    1
    20    28    30    1
    21    30    31    1
    22    31    32    1
    23    31    33    1
    24    33    34    1
    25     9    10   ar
    26    21    22   am
    27    22    23    1
    28    23    24    1
    29    24    25    1
    30    24    26    1
    31    10     1   ar
    32    26    22    1
    33    18    12   ar
    34    10     4   ar
    35    34    31    1
    36    16    19    1
    37     8    11    1
    38    28    29    1
    39    32    35    1
@<TRIPOS>MOLECULE
*****
 35 39 0 0 0
SMALL
GASTEIGER

@<TRIPOS>ATOM
      1 C         140.8668  141.4113  165.2138 C.ar    1  UNL1        0.0908
      2 C         140.7068  141.8670  166.6339 C.ar    1  UNL1        0.1496
      3 O         139.6442  142.9253  166.6642 O.2     1  UNL1       -0.4534
      4 C         139.1475  143.1237  165.2628 C.ar    1  UNL1        0.1454
      5 C         138.1048  144.0355  164.6872 C.ar    1  UNL1        0.0406
      6 C         137.8177  144.0116  163.2152 C.ar    1  UNL1        0.0395
      7 C         138.5733  143.0760  162.3187 C.ar    1  UNL1        0.1311
      8 O         138.2862  143.0521  160.8466 O.3     1  UNL1       -0.5058
      9 C         139.6160  142.1642  162.8943 C.ar    1  UNL1        0.0305
     10 C         139.9031  142.1880  164.3664 C.ar    1  UNL1        0.0421
     11 H         137.6348  143.6217  160.4870 H       1  UNL1        0.2922
     12 C         141.4746  141.3543  167.8161 C.ar    1  UNL1        0.0349
     13 C         141.1318  140.0212  168.4123 C.ar    1  UNL1        0.0061
     14 C         141.8996  139.5086  169.5945 C.ar    1  UNL1        0.0367
     15 C         143.0101  140.3290  170.1806 C.ar    1  UNL1        0.1337
     16 O         143.7779  139.8163  171.3629 O.3     1  UNL1       -0.5055
     17 C         143.3529  141.6620  169.5845 C.ar    1  UNL1        0.0367
     18 C         142.5851  142.1747  168.4023 C.ar    1  UNL1        0.0061
     19 H         143.5638  138.9836  171.7352 H       1  UNL1        0.2922
     20 O         141.3738  138.9370  164.6051 O.2     1  UNL1       -0.2698
     21 C         141.8226  140.3630  164.7265 C.2     1  UNL1        0.2522
     22 N         143.2275  140.7409  164.3606 N.am    1  UNL1       -0.2703
     23 C         144.4277  139.9979  163.8534 C.3     1  UNL1        0.1307
     24 C         145.2140  141.2752  163.8431 C.3     1  UNL1        0.2003
     25 F         146.6189  141.6531  163.4772 F       1  UNL1       -0.2336
     26 C         144.0138  142.0182  164.3503 C.3     1  UNL1        0.1307
     27 C         140.3716  141.2285  161.9979 C.3     1  UNL1        0.0988
     28 N         139.9878  139.7800  161.9313 N.3     1  UNL1       -0.2917
     29 H         138.9797  139.7492  161.7792 H       1  UNL1        0.1236
     30 C         140.6089  138.8862  160.8992 C.3     1  UNL1        0.0960
     31 C         141.8977  138.1788  161.1974 C.3     1  UNL1        0.1029
     32 O         141.4146  137.1661  162.1930 O.3     1  UNL1       -0.3854
     33 C         143.3541  137.8231  161.1497 C.3     1  UNL1        0.0307
     34 C         142.8282  138.9458  160.3053 C.3     1  UNL1        0.0307
     35 H         140.4608  137.2769  162.3300 H       1  UNL1        0.2103
@<TRIPOS>BOND
     1    20    21    2
     2    21     1    1
     3     1     2   ar
     4     2    12    1
     5    12    13   ar
     6    13    14   ar
     7    14    15   ar
     8    15    16    1
     9    15    17   ar
    10    17    18   ar
    11     2     3   ar
    12     3     4   ar
    13     4     5   ar
    14     5     6   ar
    15     6     7   ar
    16     7     8    1
    17     7     9   ar
    18     9    27    1
    19    27    28    1
    20    28    30    1
    21    30    31    1
    22    31    32    1
    23    31    33    1
    24    33    34    1
    25     9    10   ar
    26    21    22   am
    27    22    23    1
    28    23    24    1
    29    24    25    1
    30    24    26    1
    31    10     1   ar
    32    26    22    1
    33    18    12   ar
    34    10     4   ar
    35    34    31    1
    36    16    19    1
    37     8    11    1
    38    28    29    1
    39    32    35    1
@<TRIPOS>MOLECULE
*****
 35 39 0 0 0
SMALL
GASTEIGER

@<TRIPOS>ATOM
      1 C         141.3868  140.5462  163.4269 C.ar    1  UNL1        0.0908
      2 C         141.3751  139.8359  164.7480 C.ar    1  UNL1        0.1496
      3 O         142.7667  139.8729  165.3065 O.2     1  UNL1       -0.4534
      4 C         143.6385  140.6061  164.3306 C.ar    1  UNL1        0.1454
      5 C         145.0988  140.9485  164.3496 C.ar    1  UNL1        0.0406
      6 C         145.7061  141.7072  163.2071 C.ar    1  UNL1        0.0395
      7 C         144.8533  142.1233  162.0454 C.ar    1  UNL1        0.1311
      8 O         145.4607  142.8820  160.9028 O.3     1  UNL1       -0.5058
      9 C         143.3930  141.7809  162.0263 C.ar    1  UNL1        0.0305
     10 C         142.7857  141.0222  163.1689 C.ar    1  UNL1        0.0421
     11 H         146.3729  143.0959  160.9147 H       1  UNL1        0.2922
     12 C         140.1813  139.2001  165.3967 C.ar    1  UNL1        0.0349
     13 C         139.5133  139.8717  166.5597 C.ar    1  UNL1        0.0061
     14 C         138.3195  139.2359  167.2084 C.ar    1  UNL1        0.0367
     15 C         137.7938  137.9287  166.6940 C.ar    1  UNL1        0.1337
     16 O         136.6000  137.2930  167.3427 O.3     1  UNL1       -0.5055
     17 C         138.4618  137.2571  165.5310 C.ar    1  UNL1        0.0367
     18 C         139.6556  137.8929  164.8823 C.ar    1  UNL1        0.0061
     19 H         136.1827  137.7125  168.0692 H       1  UNL1        0.2922
     20 O         139.9381  139.7712  161.4143 O.2     1  UNL1       -0.2698
     21 C         140.2068  140.7456  162.5225 C.2     1  UNL1        0.2522
     22 N         139.2954  141.9195  162.7265 N.am    1  UNL1       -0.2703
     23 C         138.0596  142.4330  162.0490 C.3     1  UNL1        0.1307
     24 C         138.0066  143.5795  163.0149 C.3     1  UNL1        0.2003
     25 F         137.0952  144.7534  163.2188 F       1  UNL1       -0.2336
     26 C         139.2424  143.0659  163.6923 C.3     1  UNL1        0.1307
     27 C         142.5402  142.1970  160.8647 C.3     1  UNL1        0.0988
     28 N         142.2849  141.2379  159.7400 N.3     1  UNL1       -0.2917
     29 H         142.2761  141.7874  158.8807 H       1  UNL1        0.1236
     30 C         143.2192  140.0874  159.5088 C.3     1  UNL1        0.0960
     31 C         142.8952  138.7339  160.0685 C.3     1  UNL1        0.1029
     32 O         141.5780  138.4825  159.3962 O.3     1  UNL1       -0.3854
     33 C         143.0286  137.4678  160.8618 C.3     1  UNL1        0.0307
     34 C         144.0998  138.5154  160.9352 C.3     1  UNL1        0.0307
     35 H         141.3531  139.2392  158.8325 H       1  UNL1        0.2103
@<TRIPOS>BOND
     1    20    21    2
     2    21     1    1
     3     1     2   ar
     4     2    12    1
     5    12    13   ar
     6    13    14   ar
     7    14    15   ar
     8    15    16    1
     9    15    17   ar
    10    17    18   ar
    11     2     3   ar
    12     3     4   ar
    13     4     5   ar
    14     5     6   ar
    15     6     7   ar
    16     7     8    1
    17     7     9   ar
    18     9    27    1
    19    27    28    1
    20    28    30    1
    21    30    31    1
    22    31    32    1
    23    31    33    1
    24    33    34    1
    25     9    10   ar
    26    21    22   am
    27    22    23    1
    28    23    24    1
    29    24    25    1
    30    24    26    1
    31    10     1   ar
    32    26    22    1
    33    18    12   ar
    34    10     4   ar
    35    34    31    1
    36    16    19    1
    37     8    11    1
    38    28    29    1
    39    32    35    1
@<TRIPOS>MOLECULE
*****
 35 39 0 0 0
SMALL
GASTEIGER

@<TRIPOS>ATOM
      1 C         141.0988  141.1374  165.2744 C.ar    1  UNL1        0.0908
      2 C         141.6461  141.0968  166.6704 C.ar    1  UNL1        0.1496
      3 O         142.9864  140.4250  166.6234 O.2     1  UNL1       -0.4534
      4 C         143.2675  140.0504  165.1984 C.ar    1  UNL1        0.1454
      5 C         144.4351  139.3653  164.5523 C.ar    1  UNL1        0.0406
      6 C         144.4360  139.1206  163.0724 C.ar    1  UNL1        0.0395
      7 C         143.2694  139.5609  162.2387 C.ar    1  UNL1        0.1311
      8 O         143.2704  139.3161  160.7587 O.3     1  UNL1       -0.5058
      9 C         142.1019  140.2460  162.8847 C.ar    1  UNL1        0.0305
     10 C         142.1009  140.4908  164.3646 C.ar    1  UNL1        0.0421
     11 H         143.9997  138.8882  160.3551 H       1  UNL1        0.2922
     12 C         140.9714  141.6336  167.8978 C.ar    1  UNL1        0.0349
     13 C         141.0955  143.0871  168.2468 C.ar    1  UNL1        0.0061
     14 C         140.4208  143.6240  169.4743 C.ar    1  UNL1        0.0367
     15 C         139.6222  142.7073  170.3528 C.ar    1  UNL1        0.1337
     16 O         138.9475  143.2442  171.5802 O.3     1  UNL1       -0.5055
     17 C         139.4981  141.2538  170.0038 C.ar    1  UNL1        0.0367
     18 C         140.1728  140.7169  168.7763 C.ar    1  UNL1        0.0061
     19 H         139.0250  144.1522  171.7982 H       1  UNL1        0.2922
     20 O         138.5082  140.9839  165.1525 O.2     1  UNL1       -0.2698
     21 C         139.7809  141.7221  164.8607 C.2     1  UNL1        0.2522
     22 N         139.7356  143.0451  164.1551 N.am    1  UNL1       -0.2703
     23 C         138.6460  143.9178  163.6065 C.3     1  UNL1        0.1307
     24 C         139.6717  144.9160  163.1574 C.3     1  UNL1        0.2003
     25 F         139.6265  146.2390  162.4518 F       1  UNL1       -0.2336
     26 C         140.7613  144.0432  163.7060 C.3     1  UNL1        0.1307
     27 C         140.9353  140.6863  162.0510 C.3     1  UNL1        0.0988
     28 N         140.1000  139.6683  161.3328 N.3     1  UNL1       -0.2917
     29 H         140.4977  139.5668  160.3991 H       1  UNL1        0.1236
     30 C         139.9559  138.2850  161.8948 C.3     1  UNL1        0.0960
     31 C         139.3776  138.0886  163.2649 C.3     1  UNL1        0.1029
     32 O         138.1036  138.8677  163.1241 O.3     1  UNL1       -0.3854
     33 C         139.2420  137.6216  164.6839 C.3     1  UNL1        0.0307
     34 C         140.4509  137.2413  163.8814 C.3     1  UNL1        0.0307
     35 H         138.0499  139.2410  162.2304 H       1  UNL1        0.2103
@<TRIPOS>BOND
     1    20    21    2
     2    21     1    1
     3     1     2   ar
     4     2    12    1
     5    12    13   ar
     6    13    14   ar
     7    14    15   ar
     8    15    16    1
     9    15    17   ar
    10    17    18   ar
    11     2     3   ar
    12     3     4   ar
    13     4     5   ar
    14     5     6   ar
    15     6     7   ar
    16     7     8    1
    17     7     9   ar
    18     9    27    1
    19    27    28    1
    20    28    30    1
    21    30    31    1
    22    31    32    1
    23    31    33    1
    24    33    34    1
    25     9    10   ar
    26    21    22   am
    27    22    23    1
    28    23    24    1
    29    24    25    1
    30    24    26    1
    31    10     1   ar
    32    26    22    1
    33    18    12   ar
    34    10     4   ar
    35    34    31    1
    36    16    19    1
    37     8    11    1
    38    28    29    1
    39    32    35    1
@<TRIPOS>MOLECULE
*****
 35 39 0 0 0
SMALL
GASTEIGER

@<TRIPOS>ATOM
      1 C         140.9646  141.1346  165.4442 C.ar    1  UNL1        0.0908
      2 C         140.8776  140.8175  166.9077 C.ar    1  UNL1        0.1496
      3 O         140.0807  139.5561  167.0621 O.2     1  UNL1       -0.4534
      4 C         139.6751  139.0936  165.6940 C.ar    1  UNL1        0.1454
      5 C         138.8790  137.9103  165.2296 C.ar    1  UNL1        0.0406
      6 C         138.6291  137.7024  163.7653 C.ar    1  UNL1        0.0395
      7 C         139.1754  138.6780  162.7654 C.ar    1  UNL1        0.1311
      8 O         138.9255  138.4701  161.3009 O.3     1  UNL1       -0.5058
      9 C         139.9716  139.8613  163.2298 C.ar    1  UNL1        0.0305
     10 C         140.2214  140.0692  164.6941 C.ar    1  UNL1        0.0421
     11 H         138.4282  137.7308  161.0109 H       1  UNL1        0.2922
     12 C         141.4815  141.6207  168.0213 C.ar    1  UNL1        0.0349
     13 C         140.6425  142.6126  168.7711 C.ar    1  UNL1        0.0061
     14 C         141.2464  143.4159  169.8847 C.ar    1  UNL1        0.0367
     15 C         142.6893  143.2272  170.2485 C.ar    1  UNL1        0.1337
     16 O         143.2933  144.0305  171.3621 O.3     1  UNL1       -0.5055
     17 C         143.5283  142.2354  169.4987 C.ar    1  UNL1        0.0367
     18 C         142.9244  141.4321  168.3851 C.ar    1  UNL1        0.0061
     19 H         142.7692  144.6501  171.8305 H       1  UNL1        0.2922
     20 O         140.9409  143.6070  164.6463 O.2     1  UNL1       -0.2698
     21 C         141.6708  142.3106  164.8373 C.2     1  UNL1        0.2522
     22 N         143.1070  142.1901  164.4213 N.am    1  UNL1       -0.2703
     23 C         144.1127  143.1143  163.8015 C.3     1  UNL1        0.1307
     24 C         145.1379  142.0198  163.8331 C.3     1  UNL1        0.2003
     25 F         146.5741  141.8993  163.4171 F       1  UNL1       -0.2336
     26 C         144.1321  141.0956  164.4529 C.3     1  UNL1        0.1307
     27 C         140.5179  140.8369  162.2298 C.3     1  UNL1        0.0988
     28 N         141.3257  140.3446  161.0658 N.3     1  UNL1       -0.2917
     29 H         141.1107  140.9562  160.2784 H       1  UNL1        0.1236
     30 C         142.8209  140.2768  161.1657 C.3     1  UNL1        0.0960
     31 C         143.5279  138.9701  160.9590 C.3     1  UNL1        0.1029
     32 O         144.0740  139.1849  159.5785 O.3     1  UNL1       -0.3854
     33 C         144.0452  137.5887  161.2318 C.3     1  UNL1        0.0307
     34 C         143.2273  138.3016  162.2677 C.3     1  UNL1        0.0307
     35 H         143.8128  140.0632  159.2605 H       1  UNL1        0.2103
@<TRIPOS>BOND
     1    20    21    2
     2    21     1    1
     3     1     2   ar
     4     2    12    1
     5    12    13   ar
     6    13    14   ar
     7    14    15   ar
     8    15    16    1
     9    15    17   ar
    10    17    18   ar
    11     2     3   ar
    12     3     4   ar
    13     4     5   ar
    14     5     6   ar
    15     6     7   ar
    16     7     8    1
    17     7     9   ar
    18     9    27    1
    19    27    28    1
    20    28    30    1
    21    30    31    1
    22    31    32    1
    23    31    33    1
    24    33    34    1
    25     9    10   ar
    26    21    22   am
    27    22    23    1
    28    23    24    1
    29    24    25    1
    30    24    26    1
    31    10     1   ar
    32    26    22    1
    33    18    12   ar
    34    10     4   ar
    35    34    31    1
    36    16    19    1
    37     8    11    1
    38    28    29    1
    39    32    35    1
@<TRIPOS>MOLECULE
*****
 35 39 0 0 0
SMALL
GASTEIGER

@<TRIPOS>ATOM
      1 C         141.4578  142.0029  165.3373 C.ar    1  UNL1        0.0908
      2 C         142.3615  141.9799  166.5342 C.ar    1  UNL1        0.1496
      3 O         143.7419  142.3515  166.0800 O.2     1  UNL1       -0.4534
      4 C         143.6914  142.6042  164.6023 C.ar    1  UNL1        0.1454
      5 C         144.7484  143.0026  163.6154 C.ar    1  UNL1        0.0406
      6 C         144.3937  143.1855  162.1695 C.ar    1  UNL1        0.0395
      7 C         142.9820  142.9701  161.7105 C.ar    1  UNL1        0.1311
      8 O         142.6273  143.1531  160.2645 O.3     1  UNL1       -0.5058
      9 C         141.9250  142.5717  162.6973 C.ar    1  UNL1        0.0305
     10 C         142.2797  142.3887  164.1432 C.ar    1  UNL1        0.0421
     11 H         143.2876  143.4020  159.6480 H       1  UNL1        0.2922
     12 C         141.9560  141.6442  167.9388 C.ar    1  UNL1        0.0349
     13 C         142.2233  140.2749  168.4897 C.ar    1  UNL1        0.0061
     14 C         141.8178  139.9393  169.8943 C.ar    1  UNL1        0.0367
     15 C         141.1450  140.9729  170.7480 C.ar    1  UNL1        0.1337
     16 O         140.7395  140.6372  172.1526 O.3     1  UNL1       -0.5055
     17 C         140.8778  142.3422  170.1972 C.ar    1  UNL1        0.0367
     18 C         141.2833  142.6779  168.7926 C.ar    1  UNL1        0.0061
     19 H         140.9065  139.7819  172.4967 H       1  UNL1        0.2922
     20 O         138.9893  142.8086  165.2506 O.2     1  UNL1       -0.2698
     21 C         139.9899  141.6943  165.3347 C.2     1  UNL1        0.2522
     22 N         139.5225  140.2712  165.4163 N.am    1  UNL1       -0.2703
     23 C         138.1843  139.5940  165.4386 C.3     1  UNL1        0.1307
     24 C         138.8616  138.2589  165.5316 C.3     1  UNL1        0.2003
     25 F         138.3943  136.8358  165.6132 F       1  UNL1       -0.2336
     26 C         140.1998  138.9361  165.5093 C.3     1  UNL1        0.1307
     27 C         140.5133  142.3563  162.2383 C.3     1  UNL1        0.0988
     28 N         140.1817  141.1908  161.3541 N.3     1  UNL1       -0.2917
     29 H         140.6694  141.3429  160.4713 H       1  UNL1        0.1236
     30 C         140.5118  139.7961  161.7965 C.3     1  UNL1        0.0960
     31 C         139.4316  138.7579  161.8722 C.3     1  UNL1        0.1029
     32 O         140.2663  137.5277  162.0724 O.3     1  UNL1       -0.3854
     33 C         138.0616  138.1471  161.8784 C.3     1  UNL1        0.0307
     34 C         138.2220  139.6276  161.6983 C.3     1  UNL1        0.0307
     35 H         141.2046  137.7730  162.0902 H       1  UNL1        0.2103
@<TRIPOS>BOND
     1    20    21    2
     2    21     1    1
     3     1     2   ar
     4     2    12    1
     5    12    13   ar
     6    13    14   ar
     7    14    15   ar
     8    15    16    1
     9    15    17   ar
    10    17    18   ar
    11     2     3   ar
    12     3     4   ar
    13     4     5   ar
    14     5     6   ar
    15     6     7   ar
    16     7     8    1
    17     7     9   ar
    18     9    27    1
    19    27    28    1
    20    28    30    1
    21    30    31    1
    22    31    32    1
    23    31    33    1
    24    33    34    1
    25     9    10   ar
    26    21    22   am
    27    22    23    1
    28    23    24    1
    29    24    25    1
    30    24    26    1
    31    10     1   ar
    32    26    22    1
    33    18    12   ar
    34    10     4   ar
    35    34    31    1
    36    16    19    1
    37     8    11    1
    38    28    29    1
    39    32    35    1
@<TRIPOS>MOLECULE
*****
 35 39 0 0 0
SMALL
GASTEIGER

@<TRIPOS>ATOM
      1 C         142.2555  142.9618  165.2460 C.ar    1  UNL1        0.0908
      2 C         141.4850  142.6401  166.4921 C.ar    1  UNL1        0.1496
      3 O         140.1241  143.2588  166.3683 O.2     1  UNL1       -0.4534
      4 C         140.0536  143.9629  165.0458 C.ar    1  UNL1        0.1454
      5 C         138.9601  144.7474  164.3834 C.ar    1  UNL1        0.0406
      6 C         139.1839  145.3484  163.0275 C.ar    1  UNL1        0.0395
      7 C         140.5011  145.1649  162.3339 C.ar    1  UNL1        0.1311
      8 O         140.7249  145.7660  160.9778 O.3     1  UNL1       -0.5058
      9 C         141.5946  144.3804  162.9962 C.ar    1  UNL1        0.0305
     10 C         141.3709  143.7794  164.3521 C.ar    1  UNL1        0.0421
     11 H         140.0418  146.2561  160.5641 H       1  UNL1        0.2922
     12 C         141.9871  141.8401  167.6574 C.ar    1  UNL1        0.0349
     13 C         141.5909  140.4010  167.8057 C.ar    1  UNL1        0.0061
     14 C         142.0931  139.6011  168.9710 C.ar    1  UNL1        0.0367
     15 C         142.9915  140.2401  169.9880 C.ar    1  UNL1        0.1337
     16 O         143.4936  139.4402  171.1533 O.3     1  UNL1       -0.5055
     17 C         143.3877  141.6792  169.8397 C.ar    1  UNL1        0.0367
     18 C         142.8855  142.4792  168.6745 C.ar    1  UNL1        0.0061
     19 H         143.2461  138.5412  171.2459 H       1  UNL1        0.2922
     20 O         144.8147  143.3655  165.4395 O.2     1  UNL1       -0.2698
     21 C         143.6635  142.5401  164.9464 C.2     1  UNL1        0.2522
     22 N         143.9202  141.2928  164.1536 N.am    1  UNL1       -0.2703
     23 C         145.1465  140.5757  163.6721 C.3     1  UNL1        0.1307
     24 C         144.2832  139.5289  163.0325 C.3     1  UNL1        0.2003
     25 F         144.5399  138.2816  162.2397 F       1  UNL1       -0.2336
     26 C         143.0569  140.2460  163.5141 C.3     1  UNL1        0.1307
     27 C         142.9119  144.1969  162.3025 C.3     1  UNL1        0.0988
     28 N         142.9497  143.8662  160.8399 N.3     1  UNL1       -0.2917
     29 H         143.6332  144.4923  160.4141 H       1  UNL1        0.1236
     30 C         143.2980  142.4771  160.3938 C.3     1  UNL1        0.0960
     31 C         143.5712  142.2011  158.9449 C.3     1  UNL1        0.1029
     32 O         144.0511  140.7828  159.0359 O.3     1  UNL1       -0.3854
     33 C         143.6778  142.4177  157.4644 C.3     1  UNL1        0.0307
     34 C         143.1862  143.5235  158.3508 C.3     1  UNL1        0.0307
     35 H         144.0370  140.4955  159.9622 H       1  UNL1        0.2103
@<TRIPOS>BOND
     1    20    21    2
     2    21     1    1
     3     1     2   ar
     4     2    12    1
     5    12    13   ar
     6    13    14   ar
     7    14    15   ar
     8    15    16    1
     9    15    17   ar
    10    17    18   ar
    11     2     3   ar
    12     3     4   ar
    13     4     5   ar
    14     5     6   ar
    15     6     7   ar
    16     7     8    1
    17     7     9   ar
    18     9    27    1
    19    27    28    1
    20    28    30    1
    21    30    31    1
    22    31    32    1
    23    31    33    1
    24    33    34    1
    25     9    10   ar
    26    21    22   am
    27    22    23    1
    28    23    24    1
    29    24    25    1
    30    24    26    1
    31    10     1   ar
    32    26    22    1
    33    18    12   ar
    34    10     4   ar
    35    34    31    1
    36    16    19    1
    37     8    11    1
    38    28    29    1
    39    32    35    1
