@<TRIPOS>MOLECULE
*****
 27 29 0 0 0
SMALL
GASTEIGER

@<TRIPOS>ATOM
      1 C         138.6949  141.6823  164.5793 C.ar    1  UNL1        0.0767
      2 C         139.1606  142.5011  163.4120 C.ar    1  UNL1        0.0546
      3 C         138.1364  142.3803  162.3228 C.ar    1  UNL1        0.1552
      4 N         137.0376  141.4867  162.8169 N.ar    1  UNL1       -0.1574
      5 N         137.3828  141.0553  164.2115 N.ar    1  UNL1       -0.2745
      6 H         136.8429  140.4644  164.7847 H       1  UNL1        0.1890
      7 C         140.8547  141.1925  168.4966 C.ar    1  UNL1        0.1387
      8 C         140.9504  142.4865  167.7441 C.ar    1  UNL1        0.0369
      9 C         140.2305  142.6498  166.4383 C.ar    1  UNL1        0.0046
     10 C         139.4148  141.5190  165.8850 C.ar    1  UNL1        0.0173
     11 C         139.3192  140.2250  166.6376 C.ar    1  UNL1        0.0046
     12 C         140.0391  140.0617  167.9433 C.ar    1  UNL1        0.0369
     13 C         141.0427  141.6894  171.0397 C.3     1  UNL1        0.2525
     14 O         141.5747  141.0292  169.8024 O.3     1  UNL1       -0.4714
     15 N         138.1998  143.0376  160.9760 N.am    1  UNL1       -0.2679
     16 C         138.8003  142.3063  159.8121 C.2     1  UNL1        0.2272
     17 O         139.3373  140.9177  159.9950 O.2     1  UNL1       -0.2747
     18 H         137.8474  143.9490  160.8560 H       1  UNL1        0.1563
     19 C         138.8638  142.9637  158.4653 C.3     1  UNL1        0.0868
     20 C         140.0237  143.8487  158.1167 C.3     1  UNL1        0.0269
     21 C         140.2335  145.1364  158.8569 C.3     1  UNL1        0.0726
     22 N         140.7080  145.1147  160.2797 N.3     1  UNL1       -0.2727
     23 C         141.8846  144.2678  160.6651 C.3     1  UNL1        0.0721
     24 C         142.3591  144.2461  162.0879 C.3     1  UNL1        0.0174
     25 C         141.6571  145.0714  163.1253 C.3     1  UNL1        0.0029
     26 C         140.4805  145.9182  162.7399 C.3     1  UNL1        0.0174
     27 C         140.0060  145.9399  161.3171 C.3     1  UNL1        0.0721
@<TRIPOS>BOND
     1    13    14    1
     2    14     7    1
     3     7     8   ar
     4     8     9   ar
     5     9    10   ar
     6    10     1    1
     7     1     2   ar
     8     2     3   ar
     9     3    15    1
    10    15    16   am
    11    16    17    2
    12    16    19    1
    13    19    20    1
    14    20    21    1
    15    21    22    1
    16    22    23    1
    17    23    24    1
    18    24    25    1
    19    25    26    1
    20    26    27    1
    21     3     4   ar
    22     4     5   ar
    23    10    11   ar
    24    11    12   ar
    25    12     7   ar
    26     5     1   ar
    27    27    22    1
    28    15    18    1
    29     5     6    1
@<TRIPOS>MOLECULE
*****
 27 29 0 0 0
SMALL
GASTEIGER

@<TRIPOS>ATOM
      1 C         139.4525  140.7904  164.8742 C.ar    1  UNL1        0.0767
      2 C         140.0697  141.6763  163.8331 C.ar    1  UNL1        0.0546
      3 C         139.6138  141.1968  162.4869 C.ar    1  UNL1        0.1552
      4 N         138.7148  140.0144  162.6960 N.ar    1  UNL1       -0.1574
      5 N         138.6151  139.7633  164.1715 N.ar    1  UNL1       -0.2745
      6 H         138.0919  139.0496  164.6029 H       1  UNL1        0.1890
      7 C         140.0142  141.1505  169.3245 C.ar    1  UNL1        0.1387
      8 C         139.3189  139.9516  168.7509 C.ar    1  UNL1        0.0369
      9 C         139.1316  139.8315  167.2675 C.ar    1  UNL1        0.0046
     10 C         139.6397  140.9104  166.3577 C.ar    1  UNL1        0.0173
     11 C         140.3350  142.1093  166.9312 C.ar    1  UNL1        0.0046
     12 C         140.5223  142.2294  168.4147 C.ar    1  UNL1        0.0369
     13 C         141.4877  141.8096  171.3603 C.3     1  UNL1        0.2525
     14 O         140.2015  141.2706  170.8079 O.3     1  UNL1       -0.4714
     15 N         139.9908  141.7947  161.1638 N.am    1  UNL1       -0.2679
     16 C         139.0624  142.7569  160.4839 C.2     1  UNL1        0.2272
     17 O         137.7571  143.1212  161.1269 O.2     1  UNL1       -0.2747
     18 H         140.8475  141.5556  160.7418 H       1  UNL1        0.1563
     19 C         139.4394  143.3547  159.1608 C.3     1  UNL1        0.0868
     20 C         140.2923  144.5878  159.1108 C.3     1  UNL1        0.0269
     21 C         141.7154  144.5348  159.5819 C.3     1  UNL1        0.0726
     22 N         142.0181  144.4873  161.0502 N.3     1  UNL1       -0.2727
     23 C         141.1557  145.2415  162.0185 C.3     1  UNL1        0.0721
     24 C         141.4583  145.1940  163.4869 C.3     1  UNL1        0.0174
     25 C         142.6233  144.3923  163.9870 C.3     1  UNL1        0.0029
     26 C         143.4857  143.6381  163.0187 C.3     1  UNL1        0.0174
     27 C         143.1831  143.6856  161.5503 C.3     1  UNL1        0.0721
@<TRIPOS>BOND
     1    13    14    1
     2    14     7    1
     3     7     8   ar
     4     8     9   ar
     5     9    10   ar
     6    10     1    1
     7     1     2   ar
     8     2     3   ar
     9     3    15    1
    10    15    16   am
    11    16    17    2
    12    16    19    1
    13    19    20    1
    14    20    21    1
    15    21    22    1
    16    22    23    1
    17    23    24    1
    18    24    25    1
    19    25    26    1
    20    26    27    1
    21     3     4   ar
    22     4     5   ar
    23    10    11   ar
    24    11    12   ar
    25    12     7   ar
    26     5     1   ar
    27    27    22    1
    28    15    18    1
    29     5     6    1
@<TRIPOS>MOLECULE
*****
 27 29 0 0 0
SMALL
GASTEIGER

@<TRIPOS>ATOM
      1 C         139.3502  140.5551  165.2151 C.ar    1  UNL1        0.0767
      2 C         140.4131  140.4081  164.1670 C.ar    1  UNL1        0.0546
      3 C         139.7363  140.1540  162.8527 C.ar    1  UNL1        0.1552
      4 N         138.2550  140.1439  163.0886 N.ar    1  UNL1       -0.1574
      5 N         138.0164  140.3918  164.5486 N.ar    1  UNL1       -0.2745
      6 H         137.1385  140.4390  164.9916 H       1  UNL1        0.1890
      7 C         140.0415  141.3468  169.5906 C.ar    1  UNL1        0.1387
      8 C         139.3061  140.1129  169.1588 C.ar    1  UNL1        0.0369
      9 C         139.0756  139.8490  167.7002 C.ar    1  UNL1        0.0046
     10 C         139.5806  140.8190  166.6736 C.ar    1  UNL1        0.0173
     11 C         140.3160  142.0529  167.1055 C.ar    1  UNL1        0.0046
     12 C         140.5465  142.3168  168.5640 C.ar    1  UNL1        0.0369
     13 C         141.6583  141.8848  171.5519 C.3     1  UNL1        0.2525
     14 O         140.2719  141.6107  171.0491 O.3     1  UNL1       -0.4714
     15 N         140.4206  139.9464  161.5342 N.am    1  UNL1       -0.2679
     16 C         140.8950  138.5783  161.1426 C.2     1  UNL1        0.2272
     17 O         140.6851  137.4179  162.0696 O.2     1  UNL1       -0.2747
     18 H         140.5583  140.7080  160.9257 H       1  UNL1        0.1563
     19 C         141.5793  138.3708  159.8240 C.3     1  UNL1        0.0868
     20 C         143.0766  138.4102  159.7417 C.3     1  UNL1        0.0269
     21 C         143.9011  138.2174  160.9799 C.3     1  UNL1        0.0726
     22 N         144.1135  139.3624  161.9253 N.3     1  UNL1       -0.2727
     23 C         144.1724  139.1137  163.4033 C.3     1  UNL1        0.0721
     24 C         144.3848  140.2587  164.3487 C.3     1  UNL1        0.0174
     25 C         144.5384  141.6525  163.8160 C.3     1  UNL1        0.0029
     26 C         144.4795  141.9013  162.3379 C.3     1  UNL1        0.0174
     27 C         144.2671  140.7562  161.3925 C.3     1  UNL1        0.0721
@<TRIPOS>BOND
     1    13    14    1
     2    14     7    1
     3     7     8   ar
     4     8     9   ar
     5     9    10   ar
     6    10     1    1
     7     1     2   ar
     8     2     3   ar
     9     3    15    1
    10    15    16   am
    11    16    17    2
    12    16    19    1
    13    19    20    1
    14    20    21    1
    15    21    22    1
    16    22    23    1
    17    23    24    1
    18    24    25    1
    19    25    26    1
    20    26    27    1
    21     3     4   ar
    22     4     5   ar
    23    10    11   ar
    24    11    12   ar
    25    12     7   ar
    26     5     1   ar
    27    27    22    1
    28    15    18    1
    29     5     6    1
@<TRIPOS>MOLECULE
*****
 27 29 0 0 0
SMALL
GASTEIGER

@<TRIPOS>ATOM
      1 C         143.6919  142.2175  164.9586 C.ar    1  UNL1        0.0767
      2 C         142.8164  143.0409  164.0611 C.ar    1  UNL1        0.0546
      3 C         143.6099  143.3969  162.8390 C.ar    1  UNL1        0.1552
      4 N         144.9758  142.7935  162.9810 N.ar    1  UNL1       -0.1574
      5 N         145.0265  142.0646  164.2910 N.ar    1  UNL1       -0.2745
      6 H         145.7999  141.5722  164.6497 H       1  UNL1        0.1890
      7 C         142.5206  140.5063  168.9523 C.ar    1  UNL1        0.1387
      8 C         142.9597  141.9368  168.8490 C.ar    1  UNL1        0.0369
      9 C         143.3502  142.5072  167.5177 C.ar    1  UNL1        0.0046
     10 C         143.3015  141.6471  166.2898 C.ar    1  UNL1        0.0173
     11 C         142.8623  140.2166  166.3932 C.ar    1  UNL1        0.0046
     12 C         142.4719  139.6462  167.7244 C.ar    1  UNL1        0.0369
     13 C         140.6933  139.9518  170.7140 C.3     1  UNL1        0.2525
     14 O         142.1301  139.9359  170.2836 O.3     1  UNL1       -0.4714
     15 N         143.1229  144.2130  161.6785 N.am    1  UNL1       -0.2679
     16 C         142.3229  143.5639  160.5883 C.2     1  UNL1        0.2272
     17 O         142.0099  142.0985  160.6586 O.2     1  UNL1       -0.2747
     18 H         143.3283  145.1748  161.6323 H       1  UNL1        0.1563
     19 C         141.8359  144.3800  159.4278 C.3     1  UNL1        0.0868
     20 C         140.4858  145.0315  159.4832 C.3     1  UNL1        0.0269
     21 C         139.9737  145.5868  160.7791 C.3     1  UNL1        0.0726
     22 N         139.2393  144.6975  161.7380 N.3     1  UNL1       -0.2727
     23 C         138.7073  143.3733  161.2757 C.3     1  UNL1        0.0721
     24 C         137.9729  142.4840  162.2347 C.3     1  UNL1        0.0174
     25 C         137.7705  142.9187  163.6559 C.3     1  UNL1        0.0029
     26 C         138.3025  144.2429  164.1182 C.3     1  UNL1        0.0174
     27 C         139.0369  145.1322  163.1593 C.3     1  UNL1        0.0721
@<TRIPOS>BOND
     1    13    14    1
     2    14     7    1
     3     7     8   ar
     4     8     9   ar
     5     9    10   ar
     6    10     1    1
     7     1     2   ar
     8     2     3   ar
     9     3    15    1
    10    15    16   am
    11    16    17    2
    12    16    19    1
    13    19    20    1
    14    20    21    1
    15    21    22    1
    16    22    23    1
    17    23    24    1
    18    24    25    1
    19    25    26    1
    20    26    27    1
    21     3     4   ar
    22     4     5   ar
    23    10    11   ar
    24    11    12   ar
    25    12     7   ar
    26     5     1   ar
    27    27    22    1
    28    15    18    1
    29     5     6    1
@<TRIPOS>MOLECULE
*****
 27 29 0 0 0
SMALL
GASTEIGER

@<TRIPOS>ATOM
      1 C         141.3701  139.1270  164.9350 C.ar    1  UNL1        0.0767
      2 C         141.7162  140.1102  163.8563 C.ar    1  UNL1        0.0546
      3 C         141.8055  139.3627  162.5589 C.ar    1  UNL1        0.1552
      4 N         141.5145  137.9175  162.8357 N.ar    1  UNL1       -0.1574
      5 N         141.2454  137.7718  164.3042 N.ar    1  UNL1       -0.2745
      6 H         141.0255  136.9339  164.7719 H       1  UNL1        0.1890
      7 C         140.8049  140.0763  169.2972 C.ar    1  UNL1        0.1387
      8 C         139.6243  140.0698  168.3720 C.ar    1  UNL1        0.0369
      9 C         139.8127  139.7534  166.9179 C.ar    1  UNL1        0.0046
     10 C         141.1817  139.4435  166.3890 C.ar    1  UNL1        0.0173
     11 C         142.3623  139.4500  167.3143 C.ar    1  UNL1        0.0046
     12 C         142.1739  139.7664  168.7684 C.ar    1  UNL1        0.0369
     13 C         140.9171  141.7699  171.2643 C.3     1  UNL1        0.2525
     14 O         140.6165  140.3928  170.7513 O.3     1  UNL1       -0.4714
     15 N         142.1290  139.9562  161.2198 N.am    1  UNL1       -0.2679
     16 C         143.5392  140.3513  160.8955 C.2     1  UNL1        0.2272
     17 O         144.6259  140.1529  161.9103 O.2     1  UNL1       -0.2747
     18 H         141.4157  140.0864  160.5538 H       1  UNL1        0.1563
     19 C         143.8626  140.9448  159.5565 C.3     1  UNL1        0.0868
     20 C         144.0508  142.4267  159.4186 C.3     1  UNL1        0.0269
     21 C         142.9282  143.3604  159.7620 C.3     1  UNL1        0.0726
     22 N         142.8275  143.9360  161.1435 N.3     1  UNL1       -0.2727
     23 C         143.9834  143.8164  162.0920 C.3     1  UNL1        0.0721
     24 C         143.8826  144.3920  163.4735 C.3     1  UNL1        0.0174
     25 C         142.6260  145.0872  163.9065 C.3     1  UNL1        0.0029
     26 C         141.4700  145.2067  162.9580 C.3     1  UNL1        0.0174
     27 C         141.5708  144.6311  161.5765 C.3     1  UNL1        0.0721
@<TRIPOS>BOND
     1    13    14    1
     2    14     7    1
     3     7     8   ar
     4     8     9   ar
     5     9    10   ar
     6    10     1    1
     7     1     2   ar
     8     2     3   ar
     9     3    15    1
    10    15    16   am
    11    16    17    2
    12    16    19    1
    13    19    20    1
    14    20    21    1
    15    21    22    1
    16    22    23    1
    17    23    24    1
    18    24    25    1
    19    25    26    1
    20    26    27    1
    21     3     4   ar
    22     4     5   ar
    23    10    11   ar
    24    11    12   ar
    25    12     7   ar
    26     5     1   ar
    27    27    22    1
    28    15    18    1
    29     5     6    1
@<TRIPOS>MOLECULE
*****
 27 29 0 0 0
SMALL
GASTEIGER

@<TRIPOS>ATOM
      1 C         142.9836  140.0111  164.8395 C.ar    1  UNL1        0.0767
      2 C         141.9012  140.1798  163.8149 C.ar    1  UNL1        0.0546
      3 C         142.4311  139.6975  162.4970 C.ar    1  UNL1        0.1552
      4 N         143.8411  139.2307  162.7072 N.ar    1  UNL1       -0.1574
      5 N         144.1825  139.4246  164.1549 N.ar    1  UNL1       -0.2745
      6 H         145.0425  139.2053  164.5810 H       1  UNL1        0.1890
      7 C         142.6864  141.0775  169.2012 C.ar    1  UNL1        0.1387
      8 C         142.5885  139.6438  168.7713 C.ar    1  UNL1        0.0369
      9 C         142.6876  139.2883  167.3174 C.ar    1  UNL1        0.0046
     10 C         142.8846  140.3666  166.2934 C.ar    1  UNL1        0.0173
     11 C         142.9825  141.8003  166.7233 C.ar    1  UNL1        0.0046
     12 C         142.8834  142.1557  168.1772 C.ar    1  UNL1        0.0369
     13 C         141.2689  141.8480  171.2376 C.3     1  UNL1        0.2525
     14 O         142.5874  141.4330  170.6551 O.3     1  UNL1       -0.4714
     15 N         141.6825  139.6842  161.1973 N.am    1  UNL1       -0.2679
     16 C         140.7068  138.5831  160.9050 C.2     1  UNL1        0.2272
     17 O         140.4798  137.4952  161.9124 O.2     1  UNL1       -0.2747
     18 H         141.8315  140.3983  160.5361 H       1  UNL1        0.1563
     19 C         139.9582  138.5699  159.6052 C.3     1  UNL1        0.0868
     20 C         139.2495  139.8057  159.1353 C.3     1  UNL1        0.0269
     21 C         137.9503  140.2109  159.7661 C.3     1  UNL1        0.0726
     22 N         137.9464  140.9036  161.0965 N.3     1  UNL1       -0.2727
     23 C         138.0783  142.3963  161.1653 C.3     1  UNL1        0.0721
     24 C         138.0744  143.0890  162.4957 C.3     1  UNL1        0.0174
     25 C         137.9387  142.2891  163.7573 C.3     1  UNL1        0.0029
     26 C         137.8068  140.7965  163.6885 C.3     1  UNL1        0.0174
     27 C         137.8107  140.1038  162.3581 C.3     1  UNL1        0.0721
@<TRIPOS>BOND
     1    13    14    1
     2    14     7    1
     3     7     8   ar
     4     8     9   ar
     5     9    10   ar
     6    10     1    1
     7     1     2   ar
     8     2     3   ar
     9     3    15    1
    10    15    16   am
    11    16    17    2
    12    16    19    1
    13    19    20    1
    14    20    21    1
    15    21    22    1
    16    22    23    1
    17    23    24    1
    18    24    25    1
    19    25    26    1
    20    26    27    1
    21     3     4   ar
    22     4     5   ar
    23    10    11   ar
    24    11    12   ar
    25    12     7   ar
    26     5     1   ar
    27    27    22    1
    28    15    18    1
    29     5     6    1
@<TRIPOS>MOLECULE
*****
 27 29 0 0 0
SMALL
GASTEIGER

@<TRIPOS>ATOM
      1 C         140.8932  144.4086  163.4573 C.ar    1  UNL1        0.0767
      2 C         141.3421  144.1922  162.0425 C.ar    1  UNL1        0.0546
      3 C         140.6936  145.2384  161.1852 C.ar    1  UNL1        0.1552
      4 N         139.8439  146.1015  162.0702 N.ar    1  UNL1       -0.1574
      5 N         139.9673  145.5886  163.4744 N.ar    1  UNL1       -0.2745
      6 H         139.5192  145.9610  164.2680 H       1  UNL1        0.1890
      7 C         142.1106  141.9497  167.0240 C.ar    1  UNL1        0.1387
      8 C         140.6718  142.3256  166.8280 C.ar    1  UNL1        0.0369
      9 C         140.2660  143.1453  165.6391 C.ar    1  UNL1        0.0046
     10 C         141.2990  143.5890  164.6462 C.ar    1  UNL1        0.0173
     11 C         142.7378  143.2130  164.8422 C.ar    1  UNL1        0.0046
     12 C         143.1436  142.3934  166.0311 C.ar    1  UNL1        0.0369
     13 C         142.6074  139.6372  168.0989 C.3     1  UNL1        0.2525
     14 O         142.5164  141.1300  168.2129 O.3     1  UNL1       -0.4714
     15 N         140.8647  145.3943  159.7032 N.am    1  UNL1       -0.2679
     16 C         140.0584  144.5492  158.7622 C.2     1  UNL1        0.2272
     17 O         139.0808  143.5483  159.3031 O.2     1  UNL1       -0.2747
     18 H         141.5063  146.0512  159.3481 H       1  UNL1        0.1563
     19 C         140.2295  144.7050  157.2801 C.3     1  UNL1        0.0868
     20 C         140.3164  146.0750  156.6751 C.3     1  UNL1        0.0269
     21 C         139.1659  146.6181  155.8805 C.3     1  UNL1        0.0726
     22 N         139.1430  148.0655  155.4873 N.3     1  UNL1       -0.2727
     23 C         138.5201  149.0806  156.3992 C.3     1  UNL1        0.0721
     24 C         138.4972  150.5280  156.0060 C.3     1  UNL1        0.0174
     25 C         139.0972  150.9602  154.7010 C.3     1  UNL1        0.0029
     26 C         139.7201  149.9451  153.7891 C.3     1  UNL1        0.0174
     27 C         139.7430  148.4977  154.1823 C.3     1  UNL1        0.0721
@<TRIPOS>BOND
     1    13    14    1
     2    14     7    1
     3     7     8   ar
     4     8     9   ar
     5     9    10   ar
     6    10     1    1
     7     1     2   ar
     8     2     3   ar
     9     3    15    1
    10    15    16   am
    11    16    17    2
    12    16    19    1
    13    19    20    1
    14    20    21    1
    15    21    22    1
    16    22    23    1
    17    23    24    1
    18    24    25    1
    19    25    26    1
    20    26    27    1
    21     3     4   ar
    22     4     5   ar
    23    10    11   ar
    24    11    12   ar
    25    12     7   ar
    26     5     1   ar
    27    27    22    1
    28    15    18    1
    29     5     6    1
@<TRIPOS>MOLECULE
*****
 27 29 0 0 0
SMALL
GASTEIGER

@<TRIPOS>ATOM
      1 C         143.2901  135.9745  156.4837 C.ar    1  UNL1        0.0767
      2 C         142.5198  136.9277  157.3487 C.ar    1  UNL1        0.0546
      3 C         143.0539  138.3083  157.1069 C.ar    1  UNL1        0.1552
      4 N         144.1544  138.2085  156.0926 N.ar    1  UNL1       -0.1574
      5 N         144.3004  136.7662  155.7074 N.ar    1  UNL1       -0.2745
      6 H         144.9459  136.4029  155.0590 H       1  UNL1        0.1890
      7 C         142.6778  131.5221  156.2575 C.ar    1  UNL1        0.1387
      8 C         143.7511  132.0877  157.1396 C.ar    1  UNL1        0.0369
      9 C         143.9552  133.5719  157.2150 C.ar    1  UNL1        0.0046
     10 C         143.0860  134.4904  156.4083 C.ar    1  UNL1        0.0173
     11 C         142.0127  133.9248  155.5262 C.ar    1  UNL1        0.0046
     12 C         141.8087  132.4407  155.4508 C.ar    1  UNL1        0.0369
     13 C         141.3786  129.4741  155.3262 C.3     1  UNL1        0.2525
     14 O         142.4737  130.0380  156.1821 O.3     1  UNL1       -0.4714
     15 N         142.5722  139.5677  157.7642 N.am    1  UNL1       -0.2679
     16 C         143.1075  139.9644  159.1081 C.2     1  UNL1        0.2272
     17 O         144.1246  139.1017  159.7947 O.2     1  UNL1       -0.2747
     18 H         141.9046  140.1338  157.3135 H       1  UNL1        0.1563
     19 C         142.6257  141.2237  159.7653 C.3     1  UNL1        0.0868
     20 C         143.4421  142.4786  159.6708 C.3     1  UNL1        0.0269
     21 C         144.7173  142.6042  160.4506 C.3     1  UNL1        0.0726
     22 N         144.6713  142.8002  161.9370 N.3     1  UNL1       -0.2727
     23 C         143.9801  143.9998  162.5143 C.3     1  UNL1        0.0721
     24 C         143.9340  144.1958  164.0007 C.3     1  UNL1        0.0174
     25 C         144.5791  143.1922  164.9098 C.3     1  UNL1        0.0029
     26 C         145.2703  141.9926  164.3326 C.3     1  UNL1        0.0174
     27 C         145.3164  141.7966  162.8462 C.3     1  UNL1        0.0721
@<TRIPOS>BOND
     1    13    14    1
     2    14     7    1
     3     7     8   ar
     4     8     9   ar
     5     9    10   ar
     6    10     1    1
     7     1     2   ar
     8     2     3   ar
     9     3    15    1
    10    15    16   am
    11    16    17    2
    12    16    19    1
    13    19    20    1
    14    20    21    1
    15    21    22    1
    16    22    23    1
    17    23    24    1
    18    24    25    1
    19    25    26    1
    20    26    27    1
    21     3     4   ar
    22     4     5   ar
    23    10    11   ar
    24    11    12   ar
    25    12     7   ar
    26     5     1   ar
    27    27    22    1
    28    15    18    1
    29     5     6    1
@<TRIPOS>MOLECULE
*****
 27 29 0 0 0
SMALL
GASTEIGER

@<TRIPOS>ATOM
      1 C         139.3481  142.7996  164.9764 C.ar    1  UNL1        0.0767
      2 C         138.9870  142.2584  163.6249 C.ar    1  UNL1        0.0546
      3 C         138.7083  143.4212  162.7192 C.ar    1  UNL1        0.1552
      4 N         138.8971  144.6811  163.5110 N.ar    1  UNL1       -0.1574
      5 N         139.2926  144.2969  164.9060 N.ar    1  UNL1       -0.2745
      6 H         139.4823  144.9184  165.6456 H       1  UNL1        0.1890
      7 C         140.4113  140.3597  168.6049 C.ar    1  UNL1        0.1387
      8 C         140.8578  141.7881  168.5045 C.ar    1  UNL1        0.0369
      9 C         140.5034  142.6014  167.2950 C.ar    1  UNL1        0.0046
     10 C         139.7025  141.9863  166.1859 C.ar    1  UNL1        0.0173
     11 C         139.2560  140.5578  166.2864 C.ar    1  UNL1        0.0046
     12 C         139.6104  139.7445  167.4959 C.ar    1  UNL1        0.0369
     13 C         142.1869  139.1257  170.0453 C.3     1  UNL1        0.2525
     14 O         140.7658  139.5464  169.8145 O.3     1  UNL1       -0.4714
     15 N         138.3105  143.3386  161.2753 N.am    1  UNL1       -0.2679
     16 C         139.3317  142.9844  160.2352 C.2     1  UNL1        0.2272
     17 O         140.7505  142.7129  160.6390 O.2     1  UNL1       -0.2747
     18 H         137.3793  143.5168  161.0102 H       1  UNL1        0.1563
     19 C         138.9339  142.9018  158.7912 C.3     1  UNL1        0.0868
     20 C         138.7892  141.5638  158.1286 C.3     1  UNL1        0.0269
     21 C         137.9271  140.5070  158.7530 C.3     1  UNL1        0.0726
     22 N         138.4654  139.6637  159.8706 N.3     1  UNL1       -0.2727
     23 C         139.8910  139.1981  159.8392 C.3     1  UNL1        0.0721
     24 C         140.4293  138.3548  160.9568 C.3     1  UNL1        0.0174
     25 C         139.5421  137.9772  162.1058 C.3     1  UNL1        0.0029
     26 C         138.1165  138.4428  162.1372 C.3     1  UNL1        0.0174
     27 C         137.5782  139.2861  161.0196 C.3     1  UNL1        0.0721
@<TRIPOS>BOND
     1    13    14    1
     2    14     7    1
     3     7     8   ar
     4     8     9   ar
     5     9    10   ar
     6    10     1    1
     7     1     2   ar
     8     2     3   ar
     9     3    15    1
    10    15    16   am
    11    16    17    2
    12    16    19    1
    13    19    20    1
    14    20    21    1
    15    21    22    1
    16    22    23    1
    17    23    24    1
    18    24    25    1
    19    25    26    1
    20    26    27    1
    21     3     4   ar
    22     4     5   ar
    23    10    11   ar
    24    11    12   ar
    25    12     7   ar
    26     5     1   ar
    27    27    22    1
    28    15    18    1
    29     5     6    1
