@<TRIPOS>MOLECULE
*****
 28 31 0 0 0
SMALL
GASTEIGER

@<TRIPOS>ATOM
      1 C         139.9859  142.7370  161.3754 C.ar    1  UNL1        0.0223
      2 C         139.0592  141.6450  160.9295 C.ar    1  UNL1        0.0989
      3 N         138.5170  140.6668  161.9290 N.ar    1  UNL1       -0.2437
      4 C         138.9015  140.7806  163.3744 C.ar    1  UNL1        0.0844
      5 C         138.2525  139.7095  164.2000 C.ar    1  UNL1        0.0192
      6 C         138.3699  139.4659  165.6755 C.ar    1  UNL1        0.0016
      7 C         139.1653  140.2331  166.6896 C.ar    1  UNL1        0.0032
      8 C         139.0052  139.6538  168.0640 C.ar    1  UNL1        0.0014
      9 C         139.7195  140.2749  169.2275 C.ar    1  UNL1        0.0158
     10 C         140.5940  141.4752  169.0168 C.ar    1  UNL1        0.0645
     11 C         140.7541  142.0546  167.6425 C.ar    1  UNL1        0.0190
     12 C         140.0397  141.4335  166.4789 C.ar    1  UNL1        0.0403
     13 C         140.3347  142.1631  165.2019 C.ar    1  UNL1        0.1970
     14 O         141.2585  143.3388  165.3226 O.2     1  UNL1       -0.2865
     15 C         139.8282  141.8725  163.8203 C.ar    1  UNL1        0.0566
     16 C         140.3704  142.8507  162.8208 C.ar    1  UNL1        0.0063
     17 C         140.4592  145.8266  157.1196 C.3     1  UNL1        0.1538
     18 N         140.7457  145.1354  158.4196 N.ar    1  UNL1       -0.2473
     19 C         139.8488  144.1523  159.1119 C.ar    1  UNL1        0.0967
     20 C         140.5282  143.7152  160.3758 C.ar    1  UNL1        0.0411
     21 C         141.8449  144.4281  160.4647 C.ar    1  UNL1        0.1217
     22 N         141.9794  145.3058  159.2557 N.ar    1  UNL1       -0.1676
     23 N         141.3084  142.0964  170.1804 N.pl3   1  UNL1       -0.2187
     24 H         140.8088  142.3349  170.9945 H       1  UNL1        0.1734
     25 S         142.7841  142.3540  170.1036 S.O2    1  UNL1        0.0558
     26 C         144.2598  142.6118  170.0268 C.3     1  UNL1        0.1996
     27 O         143.0193  140.9095  169.7749 O.2     1  UNL1       -0.1544
     28 O         142.5489  143.7986  170.4323 O.2     1  UNL1       -0.1544
@<TRIPOS>BOND
     1    17    18    1
     2    18    19   ar
     3    19    20   ar
     4    20     1    1
     5     1     2   ar
     6     2     3   ar
     7     3     4   ar
     8     4     5   ar
     9     5     6   ar
    10     6     7   ar
    11     7     8   ar
    12     8     9   ar
    13     9    10   ar
    14    10    23    1
    15    23    25    1
    16    25    26    1
    17    25    27    2
    18    25    28    2
    19    10    11   ar
    20    11    12   ar
    21    12    13   ar
    22    13    14    2
    23    13    15   ar
    24    15    16   ar
    25    20    21   ar
    26    21    22   ar
    27    22    18   ar
    28    16     1   ar
    29    15     4   ar
    30    12     7   ar
    31    23    24    1
@<TRIPOS>MOLECULE
*****
 28 31 0 0 0
SMALL
GASTEIGER

@<TRIPOS>ATOM
      1 C         139.3070  140.0746  166.7884 C.ar    1  UNL1        0.0223
      2 C         138.7293  138.7573  166.3630 C.ar    1  UNL1        0.0989
      3 N         138.3844  138.5196  164.9227 N.ar    1  UNL1       -0.2437
      4 C         138.6172  139.5993  163.9078 C.ar    1  UNL1        0.0844
      5 C         138.2064  139.1580  162.5343 C.ar    1  UNL1        0.0192
      6 C         138.2718  139.9251  161.2468 C.ar    1  UNL1        0.0016
      7 C         138.7642  141.3228  161.0151 C.ar    1  UNL1        0.0032
      8 C         138.6564  141.7092  159.5696 C.ar    1  UNL1        0.0014
      9 C         139.0973  143.0714  159.1226 C.ar    1  UNL1        0.0158
     10 C         139.6458  144.0473  160.1208 C.ar    1  UNL1        0.0645
     11 C         139.7536  143.6611  161.5662 C.ar    1  UNL1        0.0190
     12 C         139.3127  142.2988  162.0134 C.ar    1  UNL1        0.0403
     13 C         139.5044  142.1180  163.4901 C.ar    1  UNL1        0.1970
     14 O         140.0820  143.2941  164.2201 O.2     1  UNL1       -0.2865
     15 C         139.1948  140.9166  164.3331 C.ar    1  UNL1        0.0566
     16 C         139.5397  141.1542  165.7734 C.ar    1  UNL1        0.0063
     17 C         141.9188  141.4545  171.1650 C.3     1  UNL1        0.1538
     18 N         140.8525  140.9466  170.2405 N.ar    1  UNL1       -0.2473
     19 C         140.9383  140.8864  168.7441 C.ar    1  UNL1        0.0967
     20 C         139.6519  140.3123  168.2288 C.ar    1  UNL1        0.0411
     21 C         138.7711  140.0176  169.4065 C.ar    1  UNL1        0.1217
     22 N         139.5130  140.4096  170.6499 N.ar    1  UNL1       -0.1676
     23 N         140.0867  145.4097  159.6738 N.pl3   1  UNL1       -0.2187
     24 H         139.7209  146.2131  160.1095 H       1  UNL1        0.1734
     25 S         141.0850  145.5477  158.5628 S.O2    1  UNL1        0.0558
     26 C         142.0832  145.6858  157.4517 C.3     1  UNL1        0.1996
     27 O         142.1321  144.9055  159.4236 O.2     1  UNL1       -0.1544
     28 O         140.0379  146.1900  157.7018 O.2     1  UNL1       -0.1544
@<TRIPOS>BOND
     1    17    18    1
     2    18    19   ar
     3    19    20   ar
     4    20     1    1
     5     1     2   ar
     6     2     3   ar
     7     3     4   ar
     8     4     5   ar
     9     5     6   ar
    10     6     7   ar
    11     7     8   ar
    12     8     9   ar
    13     9    10   ar
    14    10    23    1
    15    23    25    1
    16    25    26    1
    17    25    27    2
    18    25    28    2
    19    10    11   ar
    20    11    12   ar
    21    12    13   ar
    22    13    14    2
    23    13    15   ar
    24    15    16   ar
    25    20    21   ar
    26    21    22   ar
    27    22    18   ar
    28    16     1   ar
    29    15     4   ar
    30    12     7   ar
    31    23    24    1
@<TRIPOS>MOLECULE
*****
 28 31 0 0 0
SMALL
GASTEIGER

@<TRIPOS>ATOM
      1 C         141.2665  139.1744  160.5596 C.ar    1  UNL1        0.0223
      2 C         139.8027  138.9028  160.3767 C.ar    1  UNL1        0.0989
      3 N         138.8861  138.9020  161.5640 N.ar    1  UNL1       -0.2437
      4 C         139.4332  139.1726  162.9341 C.ar    1  UNL1        0.0844
      5 C         138.3537  139.1251  163.9745 C.ar    1  UNL1        0.0192
      6 C         138.4714  139.3374  165.4548 C.ar    1  UNL1        0.0016
      7 C         139.6977  139.6496  166.2602 C.ar    1  UNL1        0.0032
      8 C         139.3756  139.7847  167.7190 C.ar    1  UNL1        0.0014
      9 C         140.4648  140.0968  168.7018 C.ar    1  UNL1        0.0158
     10 C         141.8763  140.2739  168.2259 C.ar    1  UNL1        0.0645
     11 C         142.1984  140.1388  166.7672 C.ar    1  UNL1        0.0190
     12 C         141.1092  139.8267  165.7843 C.ar    1  UNL1        0.0403
     13 C         141.6429  139.7353  164.3854 C.ar    1  UNL1        0.1970
     14 O         143.1175  139.9654  164.2352 O.2     1  UNL1       -0.2865
     15 C         140.8970  139.4442  163.1170 C.ar    1  UNL1        0.0566
     16 C         141.8137  139.4451  161.9297 C.ar    1  UNL1        0.0063
     17 C         144.7631  140.7169  156.9160 C.3     1  UNL1        0.1538
     18 N         143.7905  139.8844  157.6975 N.ar    1  UNL1       -0.2473
     19 C         143.0401  140.3208  158.9208 C.ar    1  UNL1        0.0967
     20 C         142.1833  139.1753  159.3722 C.ar    1  UNL1        0.0411
     21 C         142.4041  138.0309  158.4280 C.ar    1  UNL1        0.1217
     22 N         143.3974  138.4691  157.3929 N.ar    1  UNL1       -0.1676
     23 N         142.9656  140.5860  169.2088 N.pl3   1  UNL1       -0.2187
     24 H         143.6755  139.9264  169.3828 H       1  UNL1        0.1734
     25 S         142.9734  141.9031  169.9264 S.O2    1  UNL1        0.0558
     26 C         142.9812  143.2204  170.6440 C.3     1  UNL1        0.1996
     27 O         142.2728  141.2719  171.0929 O.2     1  UNL1       -0.1544
     28 O         143.6741  142.5345  168.7599 O.2     1  UNL1       -0.1544
@<TRIPOS>BOND
     1    17    18    1
     2    18    19   ar
     3    19    20   ar
     4    20     1    1
     5     1     2   ar
     6     2     3   ar
     7     3     4   ar
     8     4     5   ar
     9     5     6   ar
    10     6     7   ar
    11     7     8   ar
    12     8     9   ar
    13     9    10   ar
    14    10    23    1
    15    23    25    1
    16    25    26    1
    17    25    27    2
    18    25    28    2
    19    10    11   ar
    20    11    12   ar
    21    12    13   ar
    22    13    14    2
    23    13    15   ar
    24    15    16   ar
    25    20    21   ar
    26    21    22   ar
    27    22    18   ar
    28    16     1   ar
    29    15     4   ar
    30    12     7   ar
    31    23    24    1
@<TRIPOS>MOLECULE
*****
 28 31 0 0 0
SMALL
GASTEIGER

@<TRIPOS>ATOM
      1 C         142.5112  140.2301  159.9565 C.ar    1  UNL1        0.0223
      2 C         141.7264  139.1222  159.3189 C.ar    1  UNL1        0.0989
      3 N         140.6926  138.3815  160.1142 N.ar    1  UNL1       -0.2437
      4 C         140.4436  138.7486  161.5471 C.ar    1  UNL1        0.0844
      5 C         139.3753  137.8892  162.1553 C.ar    1  UNL1        0.0192
      6 C         138.8278  137.9254  163.5514 C.ar    1  UNL1        0.0016
      7 C         139.2136  138.8300  164.6840 C.ar    1  UNL1        0.0032
      8 C         138.4164  138.5321  165.9193 C.ar    1  UNL1        0.0014
      9 C         138.6476  139.3260  167.1707 C.ar    1  UNL1        0.0158
     10 C         139.6761  140.4178  167.1870 C.ar    1  UNL1        0.0645
     11 C         140.4733  140.7157  165.9518 C.ar    1  UNL1        0.0190
     12 C         140.2420  139.9218  164.7003 C.ar    1  UNL1        0.0403
     13 C         141.1388  140.3787  163.5880 C.ar    1  UNL1        0.1970
     14 O         142.0687  141.5068  163.9234 O.2     1  UNL1       -0.2865
     15 C         141.2284  139.8565  162.1847 C.ar    1  UNL1        0.0566
     16 C         142.2622  140.5973  161.3894 C.ar    1  UNL1        0.0063
     17 C         146.0266  141.4822  156.2208 C.3     1  UNL1        0.1538
     18 N         145.1609  141.5464  157.4440 N.ar    1  UNL1       -0.2473
     19 C         144.1931  140.4931  157.8956 C.ar    1  UNL1        0.0967
     20 C         143.5450  140.9709  159.1612 C.ar    1  UNL1        0.0411
     21 C         144.1122  142.3196  159.4918 C.ar    1  UNL1        0.1217
     22 N         145.1109  142.6753  158.4306 N.ar    1  UNL1       -0.1676
     23 N         139.9074  141.2117  168.4385 N.pl3   1  UNL1       -0.2187
     24 H         139.9395  142.1949  168.3989 H       1  UNL1        0.1734
     25 S         140.0897  140.5076  169.7504 S.O2    1  UNL1        0.0558
     26 C         140.2721  139.8034  171.0622 C.3     1  UNL1        0.1996
     27 O         138.8090  141.1073  170.2504 O.2     1  UNL1       -0.1544
     28 O         141.3705  139.9078  169.2503 O.2     1  UNL1       -0.1544
@<TRIPOS>BOND
     1    17    18    1
     2    18    19   ar
     3    19    20   ar
     4    20     1    1
     5     1     2   ar
     6     2     3   ar
     7     3     4   ar
     8     4     5   ar
     9     5     6   ar
    10     6     7   ar
    11     7     8   ar
    12     8     9   ar
    13     9    10   ar
    14    10    23    1
    15    23    25    1
    16    25    26    1
    17    25    27    2
    18    25    28    2
    19    10    11   ar
    20    11    12   ar
    21    12    13   ar
    22    13    14    2
    23    13    15   ar
    24    15    16   ar
    25    20    21   ar
    26    21    22   ar
    27    22    18   ar
    28    16     1   ar
    29    15     4   ar
    30    12     7   ar
    31    23    24    1
@<TRIPOS>MOLECULE
*****
 28 31 0 0 0
SMALL
GASTEIGER

@<TRIPOS>ATOM
      1 C         141.2876  138.5837  159.3563 C.ar    1  UNL1        0.0223
      2 C         139.8210  138.7570  159.0934 C.ar    1  UNL1        0.0989
      3 N         138.8838  139.0408  160.2297 N.ar    1  UNL1       -0.2437
      4 C         139.4132  139.1513  161.6288 C.ar    1  UNL1        0.0844
      5 C         138.3147  139.4373  162.6093 C.ar    1  UNL1        0.0192
      6 C         138.4114  139.6206  164.0950 C.ar    1  UNL1        0.0016
      7 C         139.6305  139.5633  164.9669 C.ar    1  UNL1        0.0032
      8 C         139.2861  139.8032  166.4070 C.ar    1  UNL1        0.0014
      9 C         140.3651  139.7883  167.4488 C.ar    1  UNL1        0.0158
     10 C         141.7887  139.5334  167.0505 C.ar    1  UNL1        0.0645
     11 C         142.1331  139.2934  165.6105 C.ar    1  UNL1        0.0190
     12 C         141.0541  139.3084  164.5686 C.ar    1  UNL1        0.0403
     13 C         141.6100  139.0479  163.2000 C.ar    1  UNL1        0.1970
     14 O         143.0922  138.8283  163.1307 O.2     1  UNL1       -0.2865
     15 C         140.8797  138.9780  161.8917 C.ar    1  UNL1        0.0566
     16 C         141.8169  138.6942  160.7555 C.ar    1  UNL1        0.0063
     17 C         143.9823  136.0634  155.5791 C.3     1  UNL1        0.1538
     18 N         143.4635  137.1414  156.4839 N.ar    1  UNL1       -0.2473
     19 C         142.4463  136.9653  157.5721 C.ar    1  UNL1        0.0967
     20 C         142.2249  138.2999  158.2201 C.ar    1  UNL1        0.0411
     21 C         143.1053  139.3009  157.5323 C.ar    1  UNL1        0.1217
     22 N         143.8708  138.5849  156.4593 N.ar    1  UNL1       -0.1676
     23 N         142.8678  139.5184  168.0923 N.pl3   1  UNL1       -0.2187
     24 H         143.7405  139.1094  167.8913 H       1  UNL1        0.1734
     25 S         142.6173  140.1267  169.4403 S.O2    1  UNL1        0.0558
     26 C         142.3667  140.7349  170.7885 C.3     1  UNL1        0.1996
     27 O         142.8874  141.4898  168.8756 O.2     1  UNL1       -0.1544
     28 O         142.3471  138.7635  170.0051 O.2     1  UNL1       -0.1544
@<TRIPOS>BOND
     1    17    18    1
     2    18    19   ar
     3    19    20   ar
     4    20     1    1
     5     1     2   ar
     6     2     3   ar
     7     3     4   ar
     8     4     5   ar
     9     5     6   ar
    10     6     7   ar
    11     7     8   ar
    12     8     9   ar
    13     9    10   ar
    14    10    23    1
    15    23    25    1
    16    25    26    1
    17    25    27    2
    18    25    28    2
    19    10    11   ar
    20    11    12   ar
    21    12    13   ar
    22    13    14    2
    23    13    15   ar
    24    15    16   ar
    25    20    21   ar
    26    21    22   ar
    27    22    18   ar
    28    16     1   ar
    29    15     4   ar
    30    12     7   ar
    31    23    24    1
@<TRIPOS>MOLECULE
*****
 28 31 0 0 0
SMALL
GASTEIGER

@<TRIPOS>ATOM
      1 C         142.5835  140.0904  166.9273 C.ar    1  UNL1        0.0223
      2 C         143.2702  138.8168  166.5320 C.ar    1  UNL1        0.0989
      3 N         143.7051  138.6089  165.1116 N.ar    1  UNL1       -0.2437
      4 C         143.4533  139.6746  164.0865 C.ar    1  UNL1        0.0844
      5 C         143.9640  139.2678  162.7361 C.ar    1  UNL1        0.0192
      6 C         143.9143  140.0340  161.4475 C.ar    1  UNL1        0.0016
      7 C         143.3414  141.3963  161.1911 C.ar    1  UNL1        0.0032
      8 C         143.4981  141.7950  159.7535 C.ar    1  UNL1        0.0014
      9 C         142.9902  143.1263  159.2848 C.ar    1  UNL1        0.0158
     10 C         142.3257  144.0589  160.2536 C.ar    1  UNL1        0.0645
     11 C         142.1689  143.6602  161.6911 C.ar    1  UNL1        0.0190
     12 C         142.6768  142.3289  162.1599 C.ar    1  UNL1        0.0403
     13 C         142.4210  142.1295  163.6244 C.ar    1  UNL1        0.1970
     14 O         141.7279  143.2610  164.3239 O.2     1  UNL1       -0.2865
     15 C         142.7665  140.9482  164.4818 C.ar    1  UNL1        0.0566
     16 C         142.3317  141.1561  165.9022 C.ar    1  UNL1        0.0063
     17 C         140.5048  142.2399  171.2793 C.3     1  UNL1        0.1538
     18 N         141.1931  141.2864  170.3481 N.ar    1  UNL1       -0.2473
     19 C         141.4298  141.5014  168.8826 C.ar    1  UNL1        0.0967
     20 C         142.1486  140.2984  168.3478 C.ar    1  UNL1        0.0411
     21 C         142.3561  139.3398  169.4827 C.ar    1  UNL1        0.1217
     22 N         141.7656  139.9504  170.7190 N.ar    1  UNL1       -0.1676
     23 N         141.8177  145.3902  159.7848 N.pl3   1  UNL1       -0.2187
     24 H         141.9907  146.1989  160.3190 H       1  UNL1        0.1734
     25 S         141.0464  145.4893  158.5023 S.O2    1  UNL1        0.0558
     26 C         140.2750  145.5885  157.2196 C.3     1  UNL1        0.1996
     27 O         139.8606  144.8543  159.1662 O.2     1  UNL1       -0.1544
     28 O         142.2321  146.1244  157.8383 O.2     1  UNL1       -0.1544
@<TRIPOS>BOND
     1    17    18    1
     2    18    19   ar
     3    19    20   ar
     4    20     1    1
     5     1     2   ar
     6     2     3   ar
     7     3     4   ar
     8     4     5   ar
     9     5     6   ar
    10     6     7   ar
    11     7     8   ar
    12     8     9   ar
    13     9    10   ar
    14    10    23    1
    15    23    25    1
    16    25    26    1
    17    25    27    2
    18    25    28    2
    19    10    11   ar
    20    11    12   ar
    21    12    13   ar
    22    13    14    2
    23    13    15   ar
    24    15    16   ar
    25    20    21   ar
    26    21    22   ar
    27    22    18   ar
    28    16     1   ar
    29    15     4   ar
    30    12     7   ar
    31    23    24    1
@<TRIPOS>MOLECULE
*****
 28 31 0 0 0
SMALL
GASTEIGER

@<TRIPOS>ATOM
      1 C         143.1643  142.4488  159.8416 C.ar    1  UNL1        0.0223
      2 C         142.4132  143.7192  159.5734 C.ar    1  UNL1        0.0989
      3 N         141.5874  144.3453  160.6578 N.ar    1  UNL1       -0.2437
      4 C         141.5127  143.7011  162.0103 C.ar    1  UNL1        0.0844
      5 C         140.6378  144.4851  162.9431 C.ar    1  UNL1        0.0192
      6 C         140.2980  144.1923  164.3745 C.ar    1  UNL1        0.0016
      7 C         140.7492  143.0432  165.2265 C.ar    1  UNL1        0.0032
      8 C         140.1745  143.1278  166.6096 C.ar    1  UNL1        0.0014
      9 C         140.5022  142.0723  167.6237 C.ar    1  UNL1        0.0158
     10 C         141.4045  140.9322  167.2549 C.ar    1  UNL1        0.0645
     11 C         141.9792  140.8476  165.8719 C.ar    1  UNL1        0.0190
     12 C         141.6515  141.9031  164.8577 C.ar    1  UNL1        0.0403
     13 C         142.3256  141.6306  163.5457 C.ar    1  UNL1        0.1970
     14 O         143.1735  140.3943  163.4942 O.2     1  UNL1       -0.2865
     15 C         142.2638  142.4308  162.2785 C.ar    1  UNL1        0.0566
     16 C         143.0896  141.8046  161.1942 C.ar    1  UNL1        0.0063
     17 C         146.7217  141.7631  156.0002 C.3     1  UNL1        0.1538
     18 N         145.6254  141.5074  156.9915 N.ar    1  UNL1       -0.2473
     19 C         145.0650  142.5037  157.9629 C.ar    1  UNL1        0.0967
     20 C         143.9902  141.8226  158.7572 C.ar    1  UNL1        0.0411
     21 C         143.8863  140.4054  158.2768 C.ar    1  UNL1        0.1217
     22 N         144.8969  140.2106  157.1856 N.ar    1  UNL1       -0.1676
     23 N         141.7323  139.8766  168.2691 N.pl3   1  UNL1       -0.2187
     24 H         141.8715  138.9451  167.9826 H       1  UNL1        0.1734
     25 S         141.8480  140.2405  169.7196 S.O2    1  UNL1        0.0558
     26 C         141.9636  140.6044  171.1702 C.3     1  UNL1        0.1996
     27 O         143.1615  140.9114  169.4467 O.2     1  UNL1       -0.1544
     28 O         140.5343  139.5697  169.9926 O.2     1  UNL1       -0.1544
@<TRIPOS>BOND
     1    17    18    1
     2    18    19   ar
     3    19    20   ar
     4    20     1    1
     5     1     2   ar
     6     2     3   ar
     7     3     4   ar
     8     4     5   ar
     9     5     6   ar
    10     6     7   ar
    11     7     8   ar
    12     8     9   ar
    13     9    10   ar
    14    10    23    1
    15    23    25    1
    16    25    26    1
    17    25    27    2
    18    25    28    2
    19    10    11   ar
    20    11    12   ar
    21    12    13   ar
    22    13    14    2
    23    13    15   ar
    24    15    16   ar
    25    20    21   ar
    26    21    22   ar
    27    22    18   ar
    28    16     1   ar
    29    15     4   ar
    30    12     7   ar
    31    23    24    1
@<TRIPOS>MOLECULE
*****
 28 31 0 0 0
SMALL
GASTEIGER

@<TRIPOS>ATOM
      1 C         139.1859  142.1770  159.0593 C.ar    1  UNL1        0.0223
      2 C         138.7800  140.8987  158.3878 C.ar    1  UNL1        0.0989
      3 N         138.5339  139.6665  159.2071 N.ar    1  UNL1       -0.2437
      4 C         138.6939  139.7127  160.6978 C.ar    1  UNL1        0.0844
      5 C         138.4019  138.3803  161.3218 C.ar    1  UNL1        0.0192
      6 C         138.4437  137.9972  162.7715 C.ar    1  UNL1        0.0016
      7 C         138.7879  138.8519  163.9551 C.ar    1  UNL1        0.0032
      8 C         138.7080  138.0735  165.2349 C.ar    1  UNL1        0.0014
      9 C         139.0154  138.7441  166.5409 C.ar    1  UNL1        0.0158
     10 C         139.4028  140.1929  166.5673 C.ar    1  UNL1        0.0645
     11 C         139.4827  140.9713  165.2876 C.ar    1  UNL1        0.0190
     12 C         139.1753  140.3008  163.9814 C.ar    1  UNL1        0.0403
     13 C         139.3141  141.2528  162.8306 C.ar    1  UNL1        0.1970
     14 O         139.7210  142.6515  163.1885 O.2     1  UNL1       -0.2865
     15 C         139.0998  140.9911  161.3693 C.ar    1  UNL1        0.0566
     16 C         139.3459  142.2232  160.5500 C.ar    1  UNL1        0.0063
     17 C         139.2258  145.6217  155.0576 C.3     1  UNL1        0.1538
     18 N         139.4503  144.9926  156.4006 N.ar    1  UNL1       -0.2473
     19 C         138.9937  143.6274  156.8222 C.ar    1  UNL1        0.0967
     20 C         139.4320  143.4093  158.2400 C.ar    1  UNL1        0.0411
     21 C         140.1596  144.6396  158.6948 C.ar    1  UNL1        0.1217
     22 N         140.1709  145.6182  157.5580 N.ar    1  UNL1       -0.1676
     23 N         139.7102  140.8635  167.8734 N.pl3   1  UNL1       -0.2187
     24 H         139.3148  141.7408  168.0815 H       1  UNL1        0.1734
     25 S         140.6202  140.1975  168.8624 S.O2    1  UNL1        0.0558
     26 C         141.5303  139.5314  169.8515 C.3     1  UNL1        0.1996
     27 O         139.4448  139.9049  169.7471 O.2     1  UNL1       -0.1544
     28 O         141.7958  140.4901  167.9777 O.2     1  UNL1       -0.1544
@<TRIPOS>BOND
     1    17    18    1
     2    18    19   ar
     3    19    20   ar
     4    20     1    1
     5     1     2   ar
     6     2     3   ar
     7     3     4   ar
     8     4     5   ar
     9     5     6   ar
    10     6     7   ar
    11     7     8   ar
    12     8     9   ar
    13     9    10   ar
    14    10    23    1
    15    23    25    1
    16    25    26    1
    17    25    27    2
    18    25    28    2
    19    10    11   ar
    20    11    12   ar
    21    12    13   ar
    22    13    14    2
    23    13    15   ar
    24    15    16   ar
    25    20    21   ar
    26    21    22   ar
    27    22    18   ar
    28    16     1   ar
    29    15     4   ar
    30    12     7   ar
    31    23    24    1
@<TRIPOS>MOLECULE
*****
 28 31 0 0 0
SMALL
GASTEIGER

@<TRIPOS>ATOM
      1 C         139.1471  141.4289  159.9845 C.ar    1  UNL1        0.0223
      2 C         138.9327  142.9041  159.8185 C.ar    1  UNL1        0.0989
      3 N         139.0204  143.8132  161.0084 N.ar    1  UNL1       -0.2437
      4 C         139.3225  143.2471  162.3642 C.ar    1  UNL1        0.0844
      5 C         139.3649  144.3217  163.4098 C.ar    1  UNL1        0.0192
      6 C         139.6320  144.1866  164.8796 C.ar    1  UNL1        0.0016
      7 C         139.9228  142.9433  165.6668 C.ar    1  UNL1        0.0032
      8 C         140.1313  143.2510  167.1200 C.ar    1  UNL1        0.0014
      9 C         140.4352  142.1437  168.0851 C.ar    1  UNL1        0.0158
     10 C         140.5307  140.7286  167.5969 C.ar    1  UNL1        0.0645
     11 C         140.3223  140.4208  166.1437 C.ar    1  UNL1        0.0190
     12 C         140.0183  141.5282  165.1786 C.ar    1  UNL1        0.0403
     13 C         139.8466  141.0068  163.7826 C.ar    1  UNL1        0.1970
     14 O         140.0055  139.5245  163.6174 O.2     1  UNL1       -0.2865
     15 C         139.5369  141.7718  162.5301 C.ar    1  UNL1        0.0566
     16 C         139.4492  140.8627  161.3403 C.ar    1  UNL1        0.0063
     17 C         140.0189  137.4378  156.6389 C.3     1  UNL1        0.1538
     18 N         139.4601  138.6852  157.2568 N.ar    1  UNL1       -0.2473
     19 C         139.8746  139.2808  158.5696 C.ar    1  UNL1        0.0967
     20 C         139.0593  140.5196  158.7946 C.ar    1  UNL1        0.0411
     21 C         138.1409  140.6897  157.6209 C.ar    1  UNL1        0.1217
     22 N         138.3886  139.5559  156.6705 N.ar    1  UNL1       -0.1676
     23 N         140.8346  139.6211  168.5619 N.pl3   1  UNL1       -0.2187
     24 H         140.3418  138.7706  168.5064 H       1  UNL1        0.1734
     25 S         141.8895  139.8095  169.6115 S.O2    1  UNL1        0.0558
     26 C         142.9445  139.9979  170.6612 C.3     1  UNL1        0.1996
     27 O         140.8232  140.0049  170.6483 O.2     1  UNL1       -0.1544
     28 O         142.9559  139.6141  168.5748 O.2     1  UNL1       -0.1544
@<TRIPOS>BOND
     1    17    18    1
     2    18    19   ar
     3    19    20   ar
     4    20     1    1
     5     1     2   ar
     6     2     3   ar
     7     3     4   ar
     8     4     5   ar
     9     5     6   ar
    10     6     7   ar
    11     7     8   ar
    12     8     9   ar
    13     9    10   ar
    14    10    23    1
    15    23    25    1
    16    25    26    1
    17    25    27    2
    18    25    28    2
    19    10    11   ar
    20    11    12   ar
    21    12    13   ar
    22    13    14    2
    23    13    15   ar
    24    15    16   ar
    25    20    21   ar
    26    21    22   ar
    27    22    18   ar
    28    16     1   ar
    29    15     4   ar
    30    12     7   ar
    31    23    24    1
