@<TRIPOS>MOLECULE
*****
 33 36 0 0 0
SMALL
GASTEIGER

@<TRIPOS>ATOM
      1 C         141.2658  140.5619  168.3964 C.ar    1  UNL1        0.0685
      2 C         140.9562  140.4671  169.8610 C.ar    1  UNL1        0.0885
      3 C         139.6040  140.0015  170.3131 C.ar    1  UNL1        0.1263
      4 N         138.5612  139.6306  169.3005 N.ar    1  UNL1       -0.1633
      5 N         138.8708  139.7254  167.8359 N.ar    1  UNL1       -0.2270
      6 C         138.0504  139.4300  166.6155 C.ar    1  UNL1        0.1004
      7 C         138.8957  139.7130  165.4091 C.ar    1  UNL1        0.0207
      8 C         140.2385  140.1834  165.8840 C.ar    1  UNL1        0.0219
      9 C         140.2232  140.1911  167.3839 C.ar    1  UNL1        0.0961
     10 C         138.4724  139.5537  163.9789 C.ar    1  UNL1        0.0015
     11 C         137.8907  140.7188  163.2346 C.ar    1  UNL1        0.0000
     12 C         137.4675  140.5594  161.8044 C.ar    1  UNL1        0.0000
     13 C         137.6260  139.2349  161.1184 C.ar    1  UNL1        0.0000
     14 C         138.2078  138.0697  161.8627 C.ar    1  UNL1        0.0000
     15 C         138.6310  138.2292  163.2929 C.ar    1  UNL1        0.0000
     16 C         141.9990  140.8380  170.8736 C.2     1  UNL1        0.2456
     17 N         143.1996  139.9604  171.0695 N.am    1  UNL1       -0.3252
     18 O         141.8411  142.0863  171.6900 O.2     1  UNL1       -0.2703
     19 H         143.3032  139.1411  170.5336 H       1  UNL1        0.1453
     20 H         143.8840  140.2038  171.7341 H       1  UNL1        0.1453
     21 N         142.6182  141.0276  167.9443 N.pl3   1  UNL1       -0.3327
     22 H         143.0971  141.7190  168.4560 H       1  UNL1        0.1468
     23 C         143.3137  142.4069  166.3191 C.3     1  UNL1        0.0029
     24 C         143.7589  141.2089  165.5337 C.3     1  UNL1        0.0282
     25 C         144.1839  142.2285  164.5189 C.3     1  UNL1        0.0029
     26 C         143.2408  140.4398  166.7126 C.3     1  UNL1        0.0702
     27 C         143.4546  138.9797  166.4438 C.3     1  UNL1        0.0208
     28 C         144.1048  138.8464  165.0987 C.3     1  UNL1        0.0160
     29 C         144.2928  140.2242  164.5362 C.3     1  UNL1        0.0404
     30 C         144.6062  141.4496  163.7300 C.3     1  UNL1        0.0156
     31 N         144.8923  139.4956  163.3701 N.3     1  UNL1       -0.3231
     32 H         144.8666  138.4914  163.5470 H       1  UNL1        0.1188
     33 H         145.8595  139.7939  163.2436 H       1  UNL1        0.1188
@<TRIPOS>BOND
     1    23    24    1
     2    24    25    1
     3    24    26    1
     4    26    21    1
     5    21     1    1
     6     1     2   ar
     7     2    16    1
     8    16    17   am
     9    16    18    2
    10     2     3   ar
    11     3     4   ar
    12     4     5   ar
    13     5     6   ar
    14     6     7   ar
    15     7    10    1
    16    10    11   ar
    17    11    12   ar
    18    12    13   ar
    19    13    14   ar
    20    14    15   ar
    21     7     8   ar
    22     8     9   ar
    23    26    27    1
    24    27    28    1
    25    28    29    1
    26    29    30    1
    27    29    31    1
    28    29    24    1
    29     9     1   ar
    30     9     5   ar
    31    15    10   ar
    32    21    22    1
    33    17    19    1
    34    17    20    1
    35    31    32    1
    36    31    33    1
@<TRIPOS>MOLECULE
*****
 33 36 0 0 0
SMALL
GASTEIGER

@<TRIPOS>ATOM
      1 C         139.2823  140.3307  163.2937 C.ar    1  UNL1        0.0685
      2 C         139.1534  139.0276  162.5621 C.ar    1  UNL1        0.0885
      3 C         139.7186  137.7731  163.1592 C.ar    1  UNL1        0.1263
      4 N         140.4128  137.8216  164.4881 N.ar    1  UNL1       -0.1633
      5 N         140.5417  139.1247  165.2197 N.ar    1  UNL1       -0.2270
      6 C         141.1683  139.4792  166.5357 C.ar    1  UNL1        0.1004
      7 C         140.9902  140.9528  166.7518 C.ar    1  UNL1        0.0207
      8 C         140.2536  141.5091  165.5694 C.ar    1  UNL1        0.0219
      9 C         139.9764  140.3792  164.6225 C.ar    1  UNL1        0.0961
     10 C         141.4654  141.7332  167.9414 C.ar    1  UNL1        0.0015
     11 C         142.8710  141.5636  168.4370 C.ar    1  UNL1        0.0000
     12 C         143.3460  142.3440  169.6266 C.ar    1  UNL1        0.0000
     13 C         142.4156  143.2940  170.3207 C.ar    1  UNL1        0.0000
     14 C         141.0100  143.4636  169.8252 C.ar    1  UNL1        0.0000
     15 C         140.5350  142.6832  168.6355 C.ar    1  UNL1        0.0000
     16 C         138.4592  138.9791  161.2332 C.2     1  UNL1        0.2456
     17 N         136.9682  139.1259  161.1602 N.am    1  UNL1       -0.3252
     18 O         139.2560  138.7839  159.9775 O.2     1  UNL1       -0.2703
     19 H         136.4453  139.2540  161.9844 H       1  UNL1        0.1453
     20 H         136.5126  139.0940  160.2880 H       1  UNL1        0.1453
     21 N         138.7170  141.5852  162.6965 N.pl3   1  UNL1       -0.3327
     22 H         137.7513  141.7672  162.7564 H       1  UNL1        0.1468
     23 C         138.3725  143.7800  162.9998 C.3     1  UNL1        0.0029
     24 C         139.5386  144.0575  162.0980 C.3     1  UNL1        0.0282
     25 C         139.2102  145.4943  162.3765 C.3     1  UNL1        0.0029
     26 C         139.6231  142.5626  162.0081 C.3     1  UNL1        0.0702
     27 C         140.7728  142.2166  161.1090 C.3     1  UNL1        0.0208
     28 C         141.3988  143.4976  160.6432 C.3     1  UNL1        0.0160
     29 C         140.6360  144.6353  161.2545 C.3     1  UNL1        0.0404
     30 C         140.0782  145.9514  161.7093 C.3     1  UNL1        0.0156
     31 N         141.6169  145.4884  160.5060 N.3     1  UNL1       -0.3231
     32 H         142.2648  144.8908  159.9927 H       1  UNL1        0.1188
     33 H         142.1374  146.0666  161.1657 H       1  UNL1        0.1188
@<TRIPOS>BOND
     1    23    24    1
     2    24    25    1
     3    24    26    1
     4    26    21    1
     5    21     1    1
     6     1     2   ar
     7     2    16    1
     8    16    17   am
     9    16    18    2
    10     2     3   ar
    11     3     4   ar
    12     4     5   ar
    13     5     6   ar
    14     6     7   ar
    15     7    10    1
    16    10    11   ar
    17    11    12   ar
    18    12    13   ar
    19    13    14   ar
    20    14    15   ar
    21     7     8   ar
    22     8     9   ar
    23    26    27    1
    24    27    28    1
    25    28    29    1
    26    29    30    1
    27    29    31    1
    28    29    24    1
    29     9     1   ar
    30     9     5   ar
    31    15    10   ar
    32    21    22    1
    33    17    19    1
    34    17    20    1
    35    31    32    1
    36    31    33    1
@<TRIPOS>MOLECULE
*****
 33 36 0 0 0
SMALL
GASTEIGER

@<TRIPOS>ATOM
      1 C         139.1767  141.4623  162.6852 C.ar    1  UNL1        0.0685
      2 C         138.4899  140.7742  161.5430 C.ar    1  UNL1        0.0885
      3 C         137.9854  139.3712  161.7066 C.ar    1  UNL1        0.1263
      4 N         138.1677  138.6561  163.0126 N.ar    1  UNL1       -0.1633
      5 N         138.8544  139.3442  164.1549 N.ar    1  UNL1       -0.2270
      6 C         139.1757  138.8959  165.5498 C.ar    1  UNL1        0.1004
      7 C         139.8788  140.0219  166.2482 C.ar    1  UNL1        0.0207
      8 C         139.9920  141.1662  165.2850 C.ar    1  UNL1        0.0219
      9 C         139.3589  140.7474  163.9912 C.ar    1  UNL1        0.0961
     10 C         140.3805  140.0064  167.6617 C.ar    1  UNL1        0.0015
     11 C         141.8337  139.7590  167.9391 C.ar    1  UNL1        0.0000
     12 C         142.3354  139.7435  169.3526 C.ar    1  UNL1        0.0000
     13 C         141.3839  139.9754  170.4888 C.ar    1  UNL1        0.0000
     14 C         139.9307  140.2228  170.2115 C.ar    1  UNL1        0.0000
     15 C         139.4291  140.2383  168.7979 C.ar    1  UNL1        0.0000
     16 C         138.3076  141.4893  160.2370 C.2     1  UNL1        0.2456
     17 N         138.3336  140.7189  158.9502 N.am    1  UNL1       -0.3252
     18 O         138.0995  142.9746  160.2178 O.2     1  UNL1       -0.2703
     19 H         138.4702  139.7440  158.9628 H       1  UNL1        0.1453
     20 H         138.2140  141.1881  158.0930 H       1  UNL1        0.1453
     21 N         139.6811  142.8655  162.5216 N.pl3   1  UNL1       -0.3327
     22 H         139.0534  143.6226  162.5656 H       1  UNL1        0.1468
     23 C         140.7124  144.4506  163.7263 C.3     1  UNL1        0.0029
     24 C         141.9865  144.1301  163.0025 C.3     1  UNL1        0.0282
     25 C         142.5644  145.2121  163.8657 C.3     1  UNL1        0.0029
     26 C         141.1422  143.1150  162.2907 C.3     1  UNL1        0.0702
     27 C         142.0153  142.3933  161.3074 C.3     1  UNL1        0.0208
     28 C         143.3992  142.9624  161.4116 C.3     1  UNL1        0.0160
     29 C         143.3814  144.0357  162.4592 C.3     1  UNL1        0.0404
     30 C         143.6677  145.1375  163.4360 C.3     1  UNL1        0.0156
     31 N         144.8362  144.1717  162.1201 N.3     1  UNL1       -0.3231
     32 H         145.0794  143.5014  161.3907 H       1  UNL1        0.1188
     33 H         145.3978  143.9881  162.9516 H       1  UNL1        0.1188
@<TRIPOS>BOND
     1    23    24    1
     2    24    25    1
     3    24    26    1
     4    26    21    1
     5    21     1    1
     6     1     2   ar
     7     2    16    1
     8    16    17   am
     9    16    18    2
    10     2     3   ar
    11     3     4   ar
    12     4     5   ar
    13     5     6   ar
    14     6     7   ar
    15     7    10    1
    16    10    11   ar
    17    11    12   ar
    18    12    13   ar
    19    13    14   ar
    20    14    15   ar
    21     7     8   ar
    22     8     9   ar
    23    26    27    1
    24    27    28    1
    25    28    29    1
    26    29    30    1
    27    29    31    1
    28    29    24    1
    29     9     1   ar
    30     9     5   ar
    31    15    10   ar
    32    21    22    1
    33    17    19    1
    34    17    20    1
    35    31    32    1
    36    31    33    1
@<TRIPOS>MOLECULE
*****
 33 36 0 0 0
SMALL
GASTEIGER

@<TRIPOS>ATOM
      1 C         140.3802  140.2885  165.9418 C.ar    1  UNL1        0.0685
      2 C         139.5295  139.9334  167.1251 C.ar    1  UNL1        0.0885
      3 C         138.4723  138.8770  166.9987 C.ar    1  UNL1        0.1263
      4 N         138.2656  138.1756  165.6889 N.ar    1  UNL1       -0.1633
      5 N         139.1162  138.5308  164.5056 N.ar    1  UNL1       -0.2270
      6 C         139.1430  138.0142  163.0976 C.ar    1  UNL1        0.1004
      7 C         140.2169  138.7515  162.3538 C.ar    1  UNL1        0.0207
      8 C         140.8538  139.7237  163.3021 C.ar    1  UNL1        0.0219
      9 C         140.1735  139.5873  164.6320 C.ar    1  UNL1        0.0961
     10 C         140.5887  138.5517  160.9144 C.ar    1  UNL1        0.0015
     11 C         142.0116  138.2589  160.5410 C.ar    1  UNL1        0.0000
     12 C         142.3833  138.0591  159.1016 C.ar    1  UNL1        0.0000
     13 C         141.3321  138.1520  158.0356 C.ar    1  UNL1        0.0000
     14 C         139.9092  138.4447  158.4090 C.ar    1  UNL1        0.0000
     15 C         139.5375  138.6445  159.8485 C.ar    1  UNL1        0.0000
     16 C         139.7363  140.6347  168.4349 C.2     1  UNL1        0.2456
     17 N         139.5325  139.8934  169.7229 N.am    1  UNL1       -0.3252
     18 O         140.1468  142.0772  168.4566 O.2     1  UNL1       -0.2703
     19 H         139.2630  138.9466  169.7086 H       1  UNL1        0.1453
     20 H         139.6681  140.3537  170.5825 H       1  UNL1        0.1453
     21 N         141.4375  141.3450  166.0682 N.pl3   1  UNL1       -0.3327
     22 H         142.2225  141.1897  166.6417 H       1  UNL1        0.1468
     23 C         143.2810  142.3288  165.2550 C.3     1  UNL1        0.0029
     24 C         142.4184  143.4294  164.7123 C.3     1  UNL1        0.0282
     25 C         143.7184  143.9905  164.2173 C.3     1  UNL1        0.0029
     26 C         141.2987  142.6382  165.3208 C.3     1  UNL1        0.0702
     27 C         140.0159  143.3672  165.0507 C.3     1  UNL1        0.0208
     28 C         140.3427  144.6089  164.2753 C.3     1  UNL1        0.0160
     29 C         141.8276  144.6473  164.0662 C.3     1  UNL1        0.0404
     30 C         143.2511  144.9538  163.7062 C.3     1  UNL1        0.0156
     31 N         141.5343  145.9294  163.3448 N.3     1  UNL1       -0.3231
     32 H         140.5304  146.1088  163.3647 H       1  UNL1        0.1188
     33 H         141.8471  145.8541  162.3769 H       1  UNL1        0.1188
@<TRIPOS>BOND
     1    23    24    1
     2    24    25    1
     3    24    26    1
     4    26    21    1
     5    21     1    1
     6     1     2   ar
     7     2    16    1
     8    16    17   am
     9    16    18    2
    10     2     3   ar
    11     3     4   ar
    12     4     5   ar
    13     5     6   ar
    14     6     7   ar
    15     7    10    1
    16    10    11   ar
    17    11    12   ar
    18    12    13   ar
    19    13    14   ar
    20    14    15   ar
    21     7     8   ar
    22     8     9   ar
    23    26    27    1
    24    27    28    1
    25    28    29    1
    26    29    30    1
    27    29    31    1
    28    29    24    1
    29     9     1   ar
    30     9     5   ar
    31    15    10   ar
    32    21    22    1
    33    17    19    1
    34    17    20    1
    35    31    32    1
    36    31    33    1
@<TRIPOS>MOLECULE
*****
 33 36 0 0 0
SMALL
GASTEIGER

@<TRIPOS>ATOM
      1 C         140.5159  140.3057  167.3942 C.ar    1  UNL1        0.0685
      2 C         140.5123  140.5868  168.8676 C.ar    1  UNL1        0.0885
      3 C         141.5284  141.5203  169.4555 C.ar    1  UNL1        0.1263
      4 N         142.5484  142.1729  168.5701 N.ar    1  UNL1       -0.1633
      5 N         142.5520  141.8918  167.0967 N.ar    1  UNL1       -0.2270
      6 C         143.4280  142.3843  165.9831 C.ar    1  UNL1        0.1004
      7 C         142.9532  141.7551  164.7070 C.ar    1  UNL1        0.0207
      8 C         141.7837  140.8737  165.0318 C.ar    1  UNL1        0.0219
      9 C         141.5357  140.9583  166.5087 C.ar    1  UNL1        0.0961
     10 C         143.5441  141.9696  163.3450 C.ar    1  UNL1        0.0015
     11 C         143.4491  140.8902  162.3078 C.ar    1  UNL1        0.0000
     12 C         144.0400  141.1048  160.9458 C.ar    1  UNL1        0.0000
     13 C         144.7260  142.3986  160.6212 C.ar    1  UNL1        0.0000
     14 C         144.8210  143.4780  161.6584 C.ar    1  UNL1        0.0000
     15 C         144.2301  143.2634  163.0204 C.ar    1  UNL1        0.0000
     16 C         139.4923  139.9342  169.7531 C.2     1  UNL1        0.2456
     17 N         139.8406  139.5898  171.1709 N.am    1  UNL1       -0.3252
     18 O         138.1243  139.6260  169.2208 O.2     1  UNL1       -0.2703
     19 H         140.7385  139.7921  171.5202 H       1  UNL1        0.1453
     20 H         139.1712  139.1615  171.7520 H       1  UNL1        0.1453
     21 N         139.4996  139.3721  166.8063 N.pl3   1  UNL1       -0.3327
     22 H         139.2429  138.5550  167.2917 H       1  UNL1        0.1468
     23 C         139.5502  137.8149  165.1938 C.3     1  UNL1        0.0029
     24 C         138.8173  138.7653  164.2940 C.3     1  UNL1        0.0282
     25 C         138.9132  137.6483  163.2975 C.3     1  UNL1        0.0029
     26 C         138.8746  139.6836  165.4787 C.3     1  UNL1        0.0702
     27 C         138.1971  140.9680  165.1027 C.3     1  UNL1        0.0208
     28 C         137.7211  140.8434  163.6858 C.3     1  UNL1        0.0160
     29 C         138.1044  139.4821  163.1860 C.3     1  UNL1        0.0404
     30 C         138.3494  138.2153  162.4211 C.3     1  UNL1        0.0156
     31 N         137.4427  139.9341  161.9179 N.3     1  UNL1       -0.3231
     32 H         137.0902  140.8837  162.0382 H       1  UNL1        0.1188
     33 H         136.6674  139.3090  161.6975 H       1  UNL1        0.1188
@<TRIPOS>BOND
     1    23    24    1
     2    24    25    1
     3    24    26    1
     4    26    21    1
     5    21     1    1
     6     1     2   ar
     7     2    16    1
     8    16    17   am
     9    16    18    2
    10     2     3   ar
    11     3     4   ar
    12     4     5   ar
    13     5     6   ar
    14     6     7   ar
    15     7    10    1
    16    10    11   ar
    17    11    12   ar
    18    12    13   ar
    19    13    14   ar
    20    14    15   ar
    21     7     8   ar
    22     8     9   ar
    23    26    27    1
    24    27    28    1
    25    28    29    1
    26    29    30    1
    27    29    31    1
    28    29    24    1
    29     9     1   ar
    30     9     5   ar
    31    15    10   ar
    32    21    22    1
    33    17    19    1
    34    17    20    1
    35    31    32    1
    36    31    33    1
@<TRIPOS>MOLECULE
*****
 33 36 0 0 0
SMALL
GASTEIGER

@<TRIPOS>ATOM
      1 C         140.7648  139.7397  162.9303 C.ar    1  UNL1        0.0685
      2 C         140.2486  138.6046  162.0965 C.ar    1  UNL1        0.0885
      3 C         139.2970  137.6094  162.6912 C.ar    1  UNL1        0.1263
      4 N         138.8614  137.7492  164.1198 N.ar    1  UNL1       -0.1633
      5 N         139.3775  138.8842  164.9536 N.ar    1  UNL1       -0.2270
      6 C         139.1276  139.2767  166.3796 C.ar    1  UNL1        0.1004
      7 C         139.9249  140.5145  166.6662 C.ar    1  UNL1        0.0207
      8 C         140.6675  140.8871  165.4173 C.ar    1  UNL1        0.0219
      9 C         140.3292  139.8795  164.3588 C.ar    1  UNL1        0.0961
     10 C         139.9715  141.2506  167.9723 C.ar    1  UNL1        0.0015
     11 C         139.5487  140.5626  169.2364 C.ar    1  UNL1        0.0000
     12 C         139.5953  141.2987  170.5426 C.ar    1  UNL1        0.0000
     13 C         140.0646  142.7228  170.5846 C.ar    1  UNL1        0.0000
     14 C         140.4873  143.4108  169.3206 C.ar    1  UNL1        0.0000
     15 C         140.4408  142.6746  168.0144 C.ar    1  UNL1        0.0000
     16 C         140.6842  138.4649  160.6679 C.2     1  UNL1        0.2456
     17 N         139.6609  138.4318  159.5717 N.am    1  UNL1       -0.3252
     18 O         142.1430  138.3582  160.3356 O.2     1  UNL1       -0.2703
     19 H         138.7034  138.5018  159.7898 H       1  UNL1        0.1453
     20 H         139.9467  138.3400  158.6341 H       1  UNL1        0.1453
     21 N         141.7164  140.7350  162.3355 N.pl3   1  UNL1       -0.3327
     22 H         142.5059  140.4237  161.8364 H       1  UNL1        0.1468
     23 C         143.3719  142.0361  163.1064 C.3     1  UNL1        0.0029
     24 C         142.4528  143.2169  163.0012 C.3     1  UNL1        0.0282
     25 C         143.6325  143.9823  163.5231 C.3     1  UNL1        0.0029
     26 C         141.4653  142.2046  162.5013 C.3     1  UNL1        0.0702
     27 C         140.1825  142.9197  162.1962 C.3     1  UNL1        0.0208
     28 C         140.3773  144.3740  162.5075 C.3     1  UNL1        0.0160
     29 C         141.7804  144.5576  163.0050 C.3     1  UNL1        0.0404
     30 C         143.1006  145.0429  163.5261 C.3     1  UNL1        0.0156
     31 N         141.3840  145.9999  163.1178 N.3     1  UNL1       -0.3231
     32 H         140.4163  146.1112  162.8151 H       1  UNL1        0.1188
     33 H         141.9924  146.5670  162.5273 H       1  UNL1        0.1188
@<TRIPOS>BOND
     1    23    24    1
     2    24    25    1
     3    24    26    1
     4    26    21    1
     5    21     1    1
     6     1     2   ar
     7     2    16    1
     8    16    17   am
     9    16    18    2
    10     2     3   ar
    11     3     4   ar
    12     4     5   ar
    13     5     6   ar
    14     6     7   ar
    15     7    10    1
    16    10    11   ar
    17    11    12   ar
    18    12    13   ar
    19    13    14   ar
    20    14    15   ar
    21     7     8   ar
    22     8     9   ar
    23    26    27    1
    24    27    28    1
    25    28    29    1
    26    29    30    1
    27    29    31    1
    28    29    24    1
    29     9     1   ar
    30     9     5   ar
    31    15    10   ar
    32    21    22    1
    33    17    19    1
    34    17    20    1
    35    31    32    1
    36    31    33    1
@<TRIPOS>MOLECULE
*****
 33 36 0 0 0
SMALL
GASTEIGER

@<TRIPOS>ATOM
      1 C         139.9302  140.0520  162.2822 C.ar    1  UNL1        0.0685
      2 C         139.4030  138.9453  161.4177 C.ar    1  UNL1        0.0885
      3 C         138.6727  137.7917  162.0386 C.ar    1  UNL1        0.1263
      4 N         138.4693  137.7446  163.5240 N.ar    1  UNL1       -0.1633
      5 N         138.9965  138.8513  164.3885 N.ar    1  UNL1       -0.2270
      6 C         138.9486  139.0767  165.8707 C.ar    1  UNL1        0.1004
      7 C         139.6494  140.3696  166.1658 C.ar    1  UNL1        0.0207
      8 C         140.1305  140.9434  164.8660 C.ar    1  UNL1        0.0219
      9 C         139.7269  140.0050  163.7676 C.ar    1  UNL1        0.0961
     10 C         139.8364  140.9815  167.5225 C.ar    1  UNL1        0.0015
     11 C         139.4093  140.2310  168.7490 C.ar    1  UNL1        0.0000
     12 C         139.5963  140.8429  170.1058 C.ar    1  UNL1        0.0000
     13 C         140.2105  142.2052  170.2360 C.ar    1  UNL1        0.0000
     14 C         140.6376  142.9557  169.0095 C.ar    1  UNL1        0.0000
     15 C         140.4505  142.3438  167.6527 C.ar    1  UNL1        0.0000
     16 C         139.6064  138.9923  159.9322 C.2     1  UNL1        0.2456
     17 N         138.5353  139.5560  159.0462 N.am    1  UNL1       -0.3252
     18 O         140.8806  138.4758  159.3329 O.2     1  UNL1       -0.2703
     19 H         137.6989  139.8950  159.4396 H       1  UNL1        0.1453
     20 H         138.6687  139.5869  158.0712 H       1  UNL1        0.1453
     21 N         140.6606  141.2056  161.6612 N.pl3   1  UNL1       -0.3327
     22 H         140.1643  141.8842  161.1489 H       1  UNL1        0.1468
     23 C         141.5471  143.2257  162.0626 C.3     1  UNL1        0.0029
     24 C         142.9058  142.5909  162.0916 C.3     1  UNL1        0.0282
     25 C         143.3802  143.9891  162.3562 C.3     1  UNL1        0.0029
     26 C         142.1473  141.3255  161.8209 C.3     1  UNL1        0.0702
     27 C         143.1365  140.2009  161.7380 C.3     1  UNL1        0.0208
     28 C         144.5063  140.7714  161.9574 C.3     1  UNL1        0.0160
     29 C         144.3637  142.2485  162.1759 C.3     1  UNL1        0.0404
     30 C         144.5334  143.7182  162.4229 C.3     1  UNL1        0.0156
     31 N         145.8571  142.2133  162.3119 N.3     1  UNL1       -0.3231
     32 H         146.1869  141.2554  162.1927 H       1  UNL1        0.1188
     33 H         146.1224  142.5515  163.2369 H       1  UNL1        0.1188
@<TRIPOS>BOND
     1    23    24    1
     2    24    25    1
     3    24    26    1
     4    26    21    1
     5    21     1    1
     6     1     2   ar
     7     2    16    1
     8    16    17   am
     9    16    18    2
    10     2     3   ar
    11     3     4   ar
    12     4     5   ar
    13     5     6   ar
    14     6     7   ar
    15     7    10    1
    16    10    11   ar
    17    11    12   ar
    18    12    13   ar
    19    13    14   ar
    20    14    15   ar
    21     7     8   ar
    22     8     9   ar
    23    26    27    1
    24    27    28    1
    25    28    29    1
    26    29    30    1
    27    29    31    1
    28    29    24    1
    29     9     1   ar
    30     9     5   ar
    31    15    10   ar
    32    21    22    1
    33    17    19    1
    34    17    20    1
    35    31    32    1
    36    31    33    1
@<TRIPOS>MOLECULE
*****
 33 36 0 0 0
SMALL
GASTEIGER

@<TRIPOS>ATOM
      1 C         140.7722  143.1956  163.1169 C.ar    1  UNL1        0.0685
      2 C         139.7859  144.1548  162.5192 C.ar    1  UNL1        0.0885
      3 C         138.8078  144.8719  163.4018 C.ar    1  UNL1        0.1263
      4 N         138.8159  144.6298  164.8822 N.ar    1  UNL1       -0.1633
      5 N         139.8022  143.6707  165.4798 N.ar    1  UNL1       -0.2270
      6 C         140.0460  143.2327  166.8936 C.ar    1  UNL1        0.1004
      7 C         141.1748  142.2449  166.8847 C.ar    1  UNL1        0.0207
      8 C         141.6286  142.0724  165.4655 C.ar    1  UNL1        0.0219
      9 C         140.7803  142.9536  164.5972 C.ar    1  UNL1        0.0961
     10 C         141.7489  141.5513  168.0844 C.ar    1  UNL1        0.0015
     11 C         142.9060  142.1596  168.8200 C.ar    1  UNL1        0.0000
     12 C         143.4802  141.4659  170.0197 C.ar    1  UNL1        0.0000
     13 C         142.8972  140.1641  170.4839 C.ar    1  UNL1        0.0000
     14 C         141.7401  139.5559  169.7483 C.ar    1  UNL1        0.0000
     15 C         141.1660  140.2495  168.5486 C.ar    1  UNL1        0.0000
     16 C         139.7777  144.3968  161.0388 C.2     1  UNL1        0.2456
     17 N         139.7821  145.7999  160.5083 N.am    1  UNL1       -0.3252
     18 O         139.7653  143.2360  160.0891 O.2     1  UNL1       -0.2703
     19 H         139.7902  146.5618  161.1317 H       1  UNL1        0.1453
     20 H         139.7767  145.9588  159.5368 H       1  UNL1        0.1453
     21 N         141.7503  142.4785  162.2342 N.pl3   1  UNL1       -0.3327
     22 H         142.4416  142.9864  161.7511 H       1  UNL1        0.1468
     23 C         143.6538  141.2937  162.2300 C.3     1  UNL1        0.0029
     24 C         142.8409  140.0440  162.0643 C.3     1  UNL1        0.0282
     25 C         144.1767  139.3618  162.0756 C.3     1  UNL1        0.0029
     26 C         141.6751  140.9875  162.0876 C.3     1  UNL1        0.0702
     27 C         140.4209  140.1784  161.9387 C.3     1  UNL1        0.0208
     28 C         140.8115  138.7348  161.8232 C.3     1  UNL1        0.0160
     29 C         142.3072  138.6518  161.9009 C.3     1  UNL1        0.0404
     30 C         143.7546  138.2605  161.9463 C.3     1  UNL1        0.0156
     31 N         142.0761  137.1777  161.7470 N.3     1  UNL1       -0.3231
     32 H         141.0751  136.9964  161.6724 H       1  UNL1        0.1188
     33 H         142.4506  136.6881  162.5596 H       1  UNL1        0.1188
@<TRIPOS>BOND
     1    23    24    1
     2    24    25    1
     3    24    26    1
     4    26    21    1
     5    21     1    1
     6     1     2   ar
     7     2    16    1
     8    16    17   am
     9    16    18    2
    10     2     3   ar
    11     3     4   ar
    12     4     5   ar
    13     5     6   ar
    14     6     7   ar
    15     7    10    1
    16    10    11   ar
    17    11    12   ar
    18    12    13   ar
    19    13    14   ar
    20    14    15   ar
    21     7     8   ar
    22     8     9   ar
    23    26    27    1
    24    27    28    1
    25    28    29    1
    26    29    30    1
    27    29    31    1
    28    29    24    1
    29     9     1   ar
    30     9     5   ar
    31    15    10   ar
    32    21    22    1
    33    17    19    1
    34    17    20    1
    35    31    32    1
    36    31    33    1
@<TRIPOS>MOLECULE
*****
 33 36 0 0 0
SMALL
GASTEIGER

@<TRIPOS>ATOM
      1 C         142.2491  141.8036  165.7187 C.ar    1  UNL1        0.0685
      2 C         142.3823  141.3239  167.1336 C.ar    1  UNL1        0.0885
      3 C         142.7727  139.9023  167.4100 C.ar    1  UNL1        0.1263
      4 N         143.0299  138.9602  166.2714 N.ar    1  UNL1       -0.1633
      5 N         142.8966  139.4399  164.8564 N.ar    1  UNL1       -0.2270
      6 C         143.0854  138.7466  163.5397 C.ar    1  UNL1        0.1004
      7 C         142.8116  139.7399  162.4495 C.ar    1  UNL1        0.0207
      8 C         142.4537  141.0470  163.0925 C.ar    1  UNL1        0.0219
      9 C         142.5063  140.8616  164.5801 C.ar    1  UNL1        0.0961
     10 C         142.8831  139.4730  160.9752 C.ar    1  UNL1        0.0015
     11 C         142.2195  138.2570  160.4001 C.ar    1  UNL1        0.0000
     12 C         142.2911  137.9901  158.9257 C.ar    1  UNL1        0.0000
     13 C         143.0263  138.9393  158.0265 C.ar    1  UNL1        0.0000
     14 C         143.6900  140.1553  158.6016 C.ar    1  UNL1        0.0000
     15 C         143.6183  140.4222  160.0760 C.ar    1  UNL1        0.0000
     16 C         142.1251  142.2660  168.2723 C.2     1  UNL1        0.2456
     17 N         143.2407  142.6404  169.2025 N.am    1  UNL1       -0.3252
     18 O         140.7525  142.8336  168.4806 O.2     1  UNL1       -0.2703
     19 H         144.1416  142.2678  169.0657 H       1  UNL1        0.1453
     20 H         143.0720  143.2587  169.9498 H       1  UNL1        0.1453
     21 N         141.8587  143.2253  165.4423 N.pl3   1  UNL1       -0.3327
     22 H         142.4500  143.9613  165.7215 H       1  UNL1        0.1468
     23 C         141.8463  144.7597  163.8074 C.3     1  UNL1        0.0029
     24 C         140.3768  144.5165  163.6307 C.3     1  UNL1        0.0282
     25 C         140.4934  145.5583  162.5578 C.3     1  UNL1        0.0029
     26 C         140.5674  143.5256  164.7406 C.3     1  UNL1        0.0702
     27 C         139.2400  142.8878  165.0255 C.3     1  UNL1        0.0208
     28 C         138.2290  143.4844  164.0918 C.3     1  UNL1        0.0160
     29 C         138.9316  144.4911  163.2297 C.3     1  UNL1        0.0404
     30 C         139.3504  145.5381  162.2407 C.3     1  UNL1        0.0156
     31 N         137.5740  144.6845  162.6220 N.3     1  UNL1       -0.3231
     32 H         136.9048  144.0664  163.0809 H       1  UNL1        0.1188
     33 H         137.6126  144.4648  161.6266 H       1  UNL1        0.1188
@<TRIPOS>BOND
     1    23    24    1
     2    24    25    1
     3    24    26    1
     4    26    21    1
     5    21     1    1
     6     1     2   ar
     7     2    16    1
     8    16    17   am
     9    16    18    2
    10     2     3   ar
    11     3     4   ar
    12     4     5   ar
    13     5     6   ar
    14     6     7   ar
    15     7    10    1
    16    10    11   ar
    17    11    12   ar
    18    12    13   ar
    19    13    14   ar
    20    14    15   ar
    21     7     8   ar
    22     8     9   ar
    23    26    27    1
    24    27    28    1
    25    28    29    1
    26    29    30    1
    27    29    31    1
    28    29    24    1
    29     9     1   ar
    30     9     5   ar
    31    15    10   ar
    32    21    22    1
    33    17    19    1
    34    17    20    1
    35    31    32    1
    36    31    33    1
