@<TRIPOS>MOLECULE
*****
 30 34 0 0 0
SMALL
GASTEIGER

@<TRIPOS>ATOM
      1 C         138.5434  138.2482  161.6247 C.3     1  UNL1        0.0294
      2 C         137.7378  139.4886  161.3747 C.3     1  UNL1        0.0666
      3 S         138.4288  140.8068  161.1879 S.3     1  UNL1       -0.0756
      4 C         141.6164  141.6225  163.2469 C.ar    1  UNL1        0.2029
      5 N         140.5521  142.2448  164.1015 N.ar    1  UNL1       -0.1250
      6 N         139.2286  142.0149  163.4342 N.ar    1  UNL1       -0.1220
      7 C         139.4748  141.2506  162.1672 C.ar    1  UNL1        0.1933
      8 N         140.9505  141.0081  162.0514 N.ar    1  UNL1       -0.2860
      9 C         141.6394  140.2791  160.9361 C.3     1  UNL1        0.1341
     10 C         143.3919  144.1830  164.2170 C.3     1  UNL1        0.0556
     11 C         143.9042  142.7928  163.9828 C.ar    1  UNL1        0.1001
     12 N         145.3225  142.3354  164.1534 N.ar    1  UNL1       -0.2085
     13 C         145.3830  140.8757  163.8129 C.ar    1  UNL1        0.2849
     14 O         144.0020  140.4311  163.4320 O.2     1  UNL1       -0.4283
     15 C         143.0881  141.6159  163.5369 C.ar    1  UNL1        0.1964
     16 C         138.5776  137.6396  162.9952 C.3     1  UNL1        0.0731
     17 N         139.6671  138.0147  163.9556 N.3     1  UNL1       -0.2712
     18 C         141.0905  137.5447  163.9015 C.3     1  UNL1        0.0738
     19 C         141.8276  138.1653  165.0511 C.3     1  UNL1        0.0372
     20 C         143.1628  138.2583  165.7281 C.3     1  UNL1        0.0245
     21 C         143.0202  139.1695  166.9112 C.3     1  UNL1        0.0909
     22 N         141.5967  139.6395  166.9653 N.pl3   1  UNL1       -0.3077
     23 C         140.8597  139.0189  165.8156 C.3     1  UNL1        0.0901
     24 C         139.5244  138.9258  165.1386 C.3     1  UNL1        0.0921
     25 C         141.0129  140.5673  167.9892 C.ar    1  UNL1        0.0478
     26 C         139.9254  140.0864  168.9035 C.ar    1  UNL1        0.0145
     27 C         139.3415  141.0142  169.9274 C.ar    1  UNL1        0.0013
     28 C         139.8452  142.4228  170.0370 C.ar    1  UNL1        0.0001
     29 C         140.9328  142.9037  169.1226 C.ar    1  UNL1        0.0013
     30 C         141.5166  141.9760  168.0987 C.ar    1  UNL1        0.0145
@<TRIPOS>BOND
     1    10    11    1
     2    11    12   ar
     3    12    13   ar
     4    13    14   ar
     5    14    15   ar
     6    15     4    1
     7     4     5   ar
     8     5     6   ar
     9     6     7   ar
    10     7     3    1
    11     3     2    1
    12     2     1    1
    13     1    16    1
    14    16    17    1
    15    17    18    1
    16    18    19    1
    17    19    20    1
    18    20    21    1
    19    21    22    1
    20    22    25    1
    21    25    26   ar
    22    26    27   ar
    23    27    28   ar
    24    28    29   ar
    25    29    30   ar
    26    22    23    1
    27    23    24    1
    28     7     8   ar
    29     8     9    1
    30    15    11   ar
    31     8     4   ar
    32    24    17    1
    33    23    19    1
    34    30    25   ar
@<TRIPOS>MOLECULE
*****
 30 34 0 0 0
SMALL
GASTEIGER

@<TRIPOS>ATOM
      1 C         139.2030  138.0902  161.6436 C.3     1  UNL1        0.0294
      2 C         138.8424  137.7136  163.0501 C.3     1  UNL1        0.0666
      3 S         139.8587  137.8441  164.1455 S.3     1  UNL1       -0.0756
      4 C         139.5437  139.5203  167.6321 C.ar    1  UNL1        0.2029
      5 N         138.1417  139.0321  167.4174 N.ar    1  UNL1       -0.1250
      6 N         138.0891  138.3448  166.0852 N.ar    1  UNL1       -0.1220
      7 C         139.4586  138.4082  165.4765 C.ar    1  UNL1        0.1933
      8 N         140.3576  139.1347  166.4325 N.ar    1  UNL1       -0.2860
      9 C         141.8146  139.4247  166.2254 C.3     1  UNL1        0.1341
     10 C         140.3568  142.6792  167.7340 C.3     1  UNL1        0.0556
     11 C         140.4177  141.7156  168.8820 C.ar    1  UNL1        0.1001
     12 N         140.8630  142.0347  170.2783 N.ar    1  UNL1       -0.2085
     13 C         140.7645  140.7801  171.0945 C.ar    1  UNL1        0.2849
     14 O         140.2583  139.6855  170.2026 O.2     1  UNL1       -0.4283
     15 C         140.0440  140.2636  168.8352 C.ar    1  UNL1        0.1964
     16 C         138.6053  139.3159  161.0186 C.3     1  UNL1        0.0731
     17 N         138.7340  140.6450  161.7019 N.3     1  UNL1       -0.2712
     18 C         137.6380  141.6528  161.8834 C.3     1  UNL1        0.0738
     19 C         138.2079  142.8303  162.6174 C.3     1  UNL1        0.0372
     20 C         137.8828  144.1809  163.1831 C.3     1  UNL1        0.0245
     21 C         139.1301  144.7355  163.8050 C.3     1  UNL1        0.0909
     22 N         140.2262  143.7276  163.6235 N.pl3   1  UNL1       -0.3077
     23 C         139.6562  142.5501  162.8895 C.3     1  UNL1        0.0901
     24 C         139.9813  141.1995  162.3237 C.3     1  UNL1        0.0921
     25 C         141.6433  143.8719  164.0935 C.ar    1  UNL1        0.0478
     26 C         142.3986  145.1388  163.8208 C.ar    1  UNL1        0.0145
     27 C         143.8157  145.2831  164.2908 C.ar    1  UNL1        0.0013
     28 C         144.4776  144.1604  165.0334 C.ar    1  UNL1        0.0001
     29 C         143.7223  142.8934  165.3061 C.ar    1  UNL1        0.0013
     30 C         142.3052  142.7491  164.8361 C.ar    1  UNL1        0.0145
@<TRIPOS>BOND
     1    10    11    1
     2    11    12   ar
     3    12    13   ar
     4    13    14   ar
     5    14    15   ar
     6    15     4    1
     7     4     5   ar
     8     5     6   ar
     9     6     7   ar
    10     7     3    1
    11     3     2    1
    12     2     1    1
    13     1    16    1
    14    16    17    1
    15    17    18    1
    16    18    19    1
    17    19    20    1
    18    20    21    1
    19    21    22    1
    20    22    25    1
    21    25    26   ar
    22    26    27   ar
    23    27    28   ar
    24    28    29   ar
    25    29    30   ar
    26    22    23    1
    27    23    24    1
    28     7     8   ar
    29     8     9    1
    30    15    11   ar
    31     8     4   ar
    32    24    17    1
    33    23    19    1
    34    30    25   ar
@<TRIPOS>MOLECULE
*****
 30 34 0 0 0
SMALL
GASTEIGER

@<TRIPOS>ATOM
      1 C         141.7114  145.2833  163.6177 C.3     1  UNL1        0.0294
      2 C         140.8204  145.5923  162.4512 C.3     1  UNL1        0.0666
      3 S         139.3647  145.2342  162.5037 S.3     1  UNL1       -0.0756
      4 C         138.6566  141.5653  163.5539 C.ar    1  UNL1        0.2029
      5 N         137.8821  142.3192  164.5941 N.ar    1  UNL1       -0.1250
      6 N         138.0531  143.7853  164.3273 N.ar    1  UNL1       -0.1220
      7 C         138.9333  143.9376  163.1222 C.ar    1  UNL1        0.1933
      8 N         139.3063  142.5656  162.6443 N.ar    1  UNL1       -0.2860
      9 C         140.1762  142.2493  161.4639 C.3     1  UNL1        0.1341
     10 C         137.4944  139.7357  161.1143 C.3     1  UNL1        0.0556
     11 C         138.2285  139.2322  162.3216 C.ar    1  UNL1        0.1001
     12 N         138.5574  137.7993  162.6195 N.ar    1  UNL1       -0.2085
     13 C         139.2949  137.7547  163.9249 C.ar    1  UNL1        0.2849
     14 O         139.4218  139.1600  164.4339 O.2     1  UNL1       -0.4283
     15 C         138.7628  140.0731  163.4429 C.ar    1  UNL1        0.1964
     16 C         142.8849  144.3656  163.4427 C.3     1  UNL1        0.0731
     17 N         142.8244  142.9621  163.9687 N.3     1  UNL1       -0.2712
     18 C         143.3184  141.7341  163.2631 C.3     1  UNL1        0.0738
     19 C         143.0586  140.5533  164.1510 C.3     1  UNL1        0.0372
     20 C         143.2033  139.0646  164.2636 C.3     1  UNL1        0.0245
     21 C         142.6383  138.6427  165.5876 C.3     1  UNL1        0.0909
     22 N         142.1443  139.8709  166.2932 N.pl3   1  UNL1       -0.3077
     23 C         142.4041  141.0516  165.4053 C.3     1  UNL1        0.0901
     24 C         142.2594  142.5404  165.2926 C.3     1  UNL1        0.0921
     25 C         141.5032  139.9111  167.6486 C.ar    1  UNL1        0.0478
     26 C         140.0576  140.2879  167.7837 C.ar    1  UNL1        0.0145
     27 C         139.4164  140.3281  169.1391 C.ar    1  UNL1        0.0013
     28 C         140.2209  139.9916  170.3596 C.ar    1  UNL1        0.0001
     29 C         141.6665  139.6147  170.2246 C.ar    1  UNL1        0.0013
     30 C         142.3077  139.5745  168.8691 C.ar    1  UNL1        0.0145
@<TRIPOS>BOND
     1    10    11    1
     2    11    12   ar
     3    12    13   ar
     4    13    14   ar
     5    14    15   ar
     6    15     4    1
     7     4     5   ar
     8     5     6   ar
     9     6     7   ar
    10     7     3    1
    11     3     2    1
    12     2     1    1
    13     1    16    1
    14    16    17    1
    15    17    18    1
    16    18    19    1
    17    19    20    1
    18    20    21    1
    19    21    22    1
    20    22    25    1
    21    25    26   ar
    22    26    27   ar
    23    27    28   ar
    24    28    29   ar
    25    29    30   ar
    26    22    23    1
    27    23    24    1
    28     7     8   ar
    29     8     9    1
    30    15    11   ar
    31     8     4   ar
    32    24    17    1
    33    23    19    1
    34    30    25   ar
@<TRIPOS>MOLECULE
*****
 30 34 0 0 0
SMALL
GASTEIGER

@<TRIPOS>ATOM
      1 C         139.5156  145.4175  162.7160 C.3     1  UNL1        0.0294
      2 C         140.0136  145.7434  161.3390 C.3     1  UNL1        0.0666
      3 S         141.1201  144.9340  160.7306 S.3     1  UNL1       -0.0756
      4 C         143.1614  142.4392  162.8928 C.ar    1  UNL1        0.2029
      5 N         143.9718  143.6914  163.0521 N.ar    1  UNL1       -0.1250
      6 N         143.3058  144.7783  162.2615 N.ar    1  UNL1       -0.1220
      7 C         142.0837  144.1979  161.6136 C.ar    1  UNL1        0.1933
      8 N         141.9944  142.7523  162.0037 N.ar    1  UNL1       -0.2860
      9 C         140.9259  141.7889  161.5794 C.3     1  UNL1        0.1341
     10 C         144.1529  139.7648  161.3072 C.3     1  UNL1        0.0556
     11 C         143.9204  139.8785  162.7847 C.ar    1  UNL1        0.1001
     12 N         144.1028  138.7828  163.7929 N.ar    1  UNL1       -0.2085
     13 C         143.7597  139.3350  165.1447 C.ar    1  UNL1        0.2849
     14 O         143.3653  140.7719  164.9721 O.2     1  UNL1       -0.4283
     15 C         143.4646  141.1077  163.5135 C.ar    1  UNL1        0.1964
     16 C         138.4612  144.3672  162.9032 C.3     1  UNL1        0.0731
     17 N         138.6720  143.2611  163.8942 N.3     1  UNL1       -0.2712
     18 C         138.0480  141.8981  163.8401 C.3     1  UNL1        0.0738
     19 C         138.5343  141.1185  165.0258 C.3     1  UNL1        0.0372
     20 C         138.4491  139.7942  165.7251 C.3     1  UNL1        0.0245
     21 C         139.3210  139.8568  166.9442 C.3     1  UNL1        0.0909
     22 N         139.9450  141.2199  166.9981 N.pl3   1  UNL1       -0.3077
     23 C         139.4588  141.9996  165.8125 C.3     1  UNL1        0.0901
     24 C         139.5439  143.3238  165.1131 C.3     1  UNL1        0.0921
     25 C         140.8895  141.7161  168.0526 C.ar    1  UNL1        0.0478
     26 C         140.5197  142.9026  168.8923 C.ar    1  UNL1        0.0145
     27 C         141.4641  143.3988  169.9468 C.ar    1  UNL1        0.0013
     28 C         142.7783  142.7084  170.1615 C.ar    1  UNL1        0.0001
     29 C         143.1482  141.5218  169.3217 C.ar    1  UNL1        0.0013
     30 C         142.2037  141.0256  168.2672 C.ar    1  UNL1        0.0145
@<TRIPOS>BOND
     1    10    11    1
     2    11    12   ar
     3    12    13   ar
     4    13    14   ar
     5    14    15   ar
     6    15     4    1
     7     4     5   ar
     8     5     6   ar
     9     6     7   ar
    10     7     3    1
    11     3     2    1
    12     2     1    1
    13     1    16    1
    14    16    17    1
    15    17    18    1
    16    18    19    1
    17    19    20    1
    18    20    21    1
    19    21    22    1
    20    22    25    1
    21    25    26   ar
    22    26    27   ar
    23    27    28   ar
    24    28    29   ar
    25    29    30   ar
    26    22    23    1
    27    23    24    1
    28     7     8   ar
    29     8     9    1
    30    15    11   ar
    31     8     4   ar
    32    24    17    1
    33    23    19    1
    34    30    25   ar
@<TRIPOS>MOLECULE
*****
 30 34 0 0 0
SMALL
GASTEIGER

@<TRIPOS>ATOM
      1 C         140.6455  137.3526  162.8706 C.3     1  UNL1        0.0294
      2 C         139.3322  137.9928  163.2104 C.3     1  UNL1        0.0666
      3 S         138.5365  138.6840  162.1431 S.3     1  UNL1       -0.0756
      4 C         138.6335  142.5634  162.0589 C.ar    1  UNL1        0.2029
      5 N         137.2636  142.3197  162.6195 N.ar    1  UNL1       -0.1250
      6 N         137.0606  140.8369  162.7192 N.ar    1  UNL1       -0.1220
      7 C         138.3049  140.1640  162.2203 C.ar    1  UNL1        0.1933
      8 N         139.2770  141.2310  161.8122 N.ar    1  UNL1       -0.2860
      9 C         140.6514  141.0053  161.2552 C.3     1  UNL1        0.1341
     10 C         139.3863  144.8098  164.3031 C.3     1  UNL1        0.0556
     11 C         139.5973  144.9364  162.8234 C.ar    1  UNL1        0.1001
     12 N         140.1914  146.1179  162.1154 N.ar    1  UNL1       -0.2085
     13 C         140.2126  145.8155  160.6463 C.ar    1  UNL1        0.2849
     14 O         139.6315  144.4472  160.4464 O.2     1  UNL1       -0.4283
     15 C         139.2513  143.9039  161.7918 C.ar    1  UNL1        0.1964
     16 C         141.7749  137.3884  163.8572 C.3     1  UNL1        0.0731
     17 N         142.3615  138.7032  164.2782 N.3     1  UNL1       -0.2712
     18 C         143.4061  139.4812  163.5344 C.3     1  UNL1        0.0738
     19 C         143.6966  140.7296  164.3135 C.3     1  UNL1        0.0372
     20 C         144.5218  141.9820  164.3353 C.3     1  UNL1        0.0245
     21 C         144.1668  142.7496  165.5742 C.3     1  UNL1        0.0909
     22 N         143.1221  141.9715  166.3181 N.pl3   1  UNL1       -0.3077
     23 C         142.8316  140.7231  165.5389 C.3     1  UNL1        0.0901
     24 C         142.0064  139.4707  165.5171 C.3     1  UNL1        0.0921
     25 C         142.4806  142.3716  167.6136 C.ar    1  UNL1        0.0478
     26 C         143.2933  142.4055  168.8739 C.ar    1  UNL1        0.0145
     27 C         142.6518  142.8056  170.1695 C.ar    1  UNL1        0.0013
     28 C         141.1976  143.1718  170.2047 C.ar    1  UNL1        0.0001
     29 C         140.3849  143.1379  168.9444 C.ar    1  UNL1        0.0013
     30 C         141.0263  142.7378  167.6488 C.ar    1  UNL1        0.0145
@<TRIPOS>BOND
     1    10    11    1
     2    11    12   ar
     3    12    13   ar
     4    13    14   ar
     5    14    15   ar
     6    15     4    1
     7     4     5   ar
     8     5     6   ar
     9     6     7   ar
    10     7     3    1
    11     3     2    1
    12     2     1    1
    13     1    16    1
    14    16    17    1
    15    17    18    1
    16    18    19    1
    17    19    20    1
    18    20    21    1
    19    21    22    1
    20    22    25    1
    21    25    26   ar
    22    26    27   ar
    23    27    28   ar
    24    28    29   ar
    25    29    30   ar
    26    22    23    1
    27    23    24    1
    28     7     8   ar
    29     8     9    1
    30    15    11   ar
    31     8     4   ar
    32    24    17    1
    33    23    19    1
    34    30    25   ar
@<TRIPOS>MOLECULE
*****
 30 34 0 0 0
SMALL
GASTEIGER

@<TRIPOS>ATOM
      1 C         138.5075  144.9367  163.2341 C.3     1  UNL1        0.0294
      2 C         139.4903  145.4999  162.2507 C.3     1  UNL1        0.0666
      3 S         140.9629  145.3796  162.5094 S.3     1  UNL1       -0.0756
      4 C         142.2556  141.7732  163.1328 C.ar    1  UNL1        0.2029
      5 N         142.5625  142.4228  164.4495 N.ar    1  UNL1       -0.1250
      6 N         142.1155  143.8528  164.3763 N.ar    1  UNL1       -0.1220
      7 C         141.5325  144.0870  163.0142 C.ar    1  UNL1        0.1933
      8 N         141.6190  142.8018  162.2457 N.ar    1  UNL1       -0.2860
      9 C         141.1512  142.5835  160.8373 C.3     1  UNL1        0.1341
     10 C         144.9474  140.0919  163.8925 C.3     1  UNL1        0.0556
     11 C         143.7734  139.5729  163.1165 C.ar    1  UNL1        0.1001
     12 N         143.6304  138.1900  162.5534 N.ar    1  UNL1       -0.2085
     13 C         142.3048  138.1081  161.8561 C.ar    1  UNL1        0.2849
     14 O         141.6285  139.4404  161.9883 O.2     1  UNL1       -0.4283
     15 C         142.5361  140.3457  162.7672 C.ar    1  UNL1        0.1964
     16 C         137.6634  143.7551  162.8582 C.3     1  UNL1        0.0731
     17 N         138.0840  142.3736  163.2636 N.3     1  UNL1       -0.2712
     18 C         137.7635  141.1040  162.5318 C.3     1  UNL1        0.0738
     19 C         138.3804  139.9648  163.2879 C.3     1  UNL1        0.0372
     20 C         138.5635  138.4761  163.3029 C.3     1  UNL1        0.0245
     21 C         139.3784  138.1215  164.5113 C.3     1  UNL1        0.0909
     22 N         139.6989  139.3911  165.2431 N.pl3   1  UNL1       -0.3077
     23 C         139.0821  140.5303  164.4870 C.3     1  UNL1        0.0901
     24 C         138.8989  142.0190  164.4719 C.3     1  UNL1        0.0921
     25 C         140.4963  139.5020  166.5088 C.ar    1  UNL1        0.0478
     26 C         141.9743  139.2471  166.4889 C.ar    1  UNL1        0.0145
     27 C         142.7717  139.3580  167.7546 C.ar    1  UNL1        0.0013
     28 C         142.0910  139.7238  169.0402 C.ar    1  UNL1        0.0001
     29 C         140.6129  139.9787  169.0601 C.ar    1  UNL1        0.0013
     30 C         139.8155  139.8678  167.7945 C.ar    1  UNL1        0.0145
@<TRIPOS>BOND
     1    10    11    1
     2    11    12   ar
     3    12    13   ar
     4    13    14   ar
     5    14    15   ar
     6    15     4    1
     7     4     5   ar
     8     5     6   ar
     9     6     7   ar
    10     7     3    1
    11     3     2    1
    12     2     1    1
    13     1    16    1
    14    16    17    1
    15    17    18    1
    16    18    19    1
    17    19    20    1
    18    20    21    1
    19    21    22    1
    20    22    25    1
    21    25    26   ar
    22    26    27   ar
    23    27    28   ar
    24    28    29   ar
    25    29    30   ar
    26    22    23    1
    27    23    24    1
    28     7     8   ar
    29     8     9    1
    30    15    11   ar
    31     8     4   ar
    32    24    17    1
    33    23    19    1
    34    30    25   ar
@<TRIPOS>MOLECULE
*****
 30 34 0 0 0
SMALL
GASTEIGER

@<TRIPOS>ATOM
      1 C         144.7722  142.8591  161.6230 C.3     1  UNL1        0.0294
      2 C         144.3418  142.2351  160.3286 C.3     1  UNL1        0.0666
      3 S         142.9645  141.6558  160.1966 S.3     1  UNL1       -0.0756
      4 C         140.4723  142.3591  163.0881 C.ar    1  UNL1        0.2029
      5 N         140.7570  140.9015  163.2988 N.ar    1  UNL1       -0.1250
      6 N         141.7252  140.4607  162.2413 N.ar    1  UNL1       -0.1220
      7 C         142.0389  141.6458  161.3770 C.ar    1  UNL1        0.1933
      8 N         141.2646  142.8191  161.9003 N.ar    1  UNL1       -0.2860
      9 C         141.2799  144.2085  161.3350 C.3     1  UNL1        0.1341
     10 C         137.2404  141.9962  163.3581 C.3     1  UNL1        0.0556
     11 C         138.0707  143.0409  164.0432 C.ar    1  UNL1        0.1001
     12 N         137.5612  144.1022  164.9728 N.ar    1  UNL1       -0.2085
     13 C         138.7318  144.9249  165.4232 C.ar    1  UNL1        0.2849
     14 O         139.9648  144.3720  164.7720 O.2     1  UNL1       -0.4283
     15 C         139.5562  143.2077  163.9191 C.ar    1  UNL1        0.1964
     16 C         145.5518  142.0548  162.6206 C.3     1  UNL1        0.0731
     17 N         144.8364  141.3215  163.7162 N.3     1  UNL1       -0.2712
     18 C         144.7127  139.8322  163.8458 C.3     1  UNL1        0.0738
     19 C         143.9189  139.5390  165.0842 C.3     1  UNL1        0.0372
     20 C         143.3518  138.4374  165.9297 C.3     1  UNL1        0.0245
     21 C         142.6343  139.0646  167.0882 C.3     1  UNL1        0.0909
     22 N         142.7580  140.5539  166.9586 N.pl3   1  UNL1       -0.3077
     23 C         143.5519  140.8471  165.7201 C.3     1  UNL1        0.0901
     24 C         144.1189  141.9487  164.8746 C.3     1  UNL1        0.0921
     25 C         142.1879  141.5714  167.9019 C.ar    1  UNL1        0.0478
     26 C         142.9732  142.0013  169.1054 C.ar    1  UNL1        0.0145
     27 C         142.4031  143.0188  170.0487 C.ar    1  UNL1        0.0013
     28 C         141.0477  143.6062  169.7885 C.ar    1  UNL1        0.0001
     29 C         140.2623  143.1763  168.5849 C.ar    1  UNL1        0.0013
     30 C         140.8324  142.1589  167.6416 C.ar    1  UNL1        0.0145
@<TRIPOS>BOND
     1    10    11    1
     2    11    12   ar
     3    12    13   ar
     4    13    14   ar
     5    14    15   ar
     6    15     4    1
     7     4     5   ar
     8     5     6   ar
     9     6     7   ar
    10     7     3    1
    11     3     2    1
    12     2     1    1
    13     1    16    1
    14    16    17    1
    15    17    18    1
    16    18    19    1
    17    19    20    1
    18    20    21    1
    19    21    22    1
    20    22    25    1
    21    25    26   ar
    22    26    27   ar
    23    27    28   ar
    24    28    29   ar
    25    29    30   ar
    26    22    23    1
    27    23    24    1
    28     7     8   ar
    29     8     9    1
    30    15    11   ar
    31     8     4   ar
    32    24    17    1
    33    23    19    1
    34    30    25   ar
@<TRIPOS>MOLECULE
*****
 30 34 0 0 0
SMALL
GASTEIGER

@<TRIPOS>ATOM
      1 C         139.6702  137.2535  163.6735 C.3     1  UNL1        0.0294
      2 C         140.2175  137.6225  162.3265 C.3     1  UNL1        0.0666
      3 S         141.6813  137.9068  162.1640 S.3     1  UNL1       -0.0756
      4 C         143.0531  141.2974  163.4632 C.ar    1  UNL1        0.2029
      5 N         143.4849  140.3702  164.5605 N.ar    1  UNL1       -0.1250
      6 N         143.0236  138.9873  164.2074 N.ar    1  UNL1       -0.1220
      7 C         142.3067  139.0597  162.8918 C.ar    1  UNL1        0.1933
      8 N         142.3248  140.4873  162.4319 N.ar    1  UNL1       -0.2860
      9 C         141.7208  141.0127  161.1634 C.3     1  UNL1        0.1341
     10 C         144.8809  142.8487  161.2492 C.3     1  UNL1        0.0556
     11 C         144.1453  143.4880  162.3895 C.ar    1  UNL1        0.1001
     12 N         144.1207  144.9527  162.7123 N.ar    1  UNL1       -0.2085
     13 C         143.2654  145.1448  163.9294 C.ar    1  UNL1        0.2849
     14 O         142.7613  143.7989  164.3589 O.2     1  UNL1       -0.4283
     15 C         143.3052  142.7750  163.4071 C.ar    1  UNL1        0.1964
     16 C         138.5795  138.0773  164.2913 C.3     1  UNL1        0.0731
     17 N         138.8335  139.5122  164.6472 N.3     1  UNL1       -0.2712
     18 C         138.2977  140.7093  163.9192 C.3     1  UNL1        0.0738
     19 C         138.8009  141.9388  164.6157 C.3     1  UNL1        0.0372
     20 C         138.7807  143.4385  164.5962 C.3     1  UNL1        0.0245
     21 C         139.6150  143.9283  165.7426 C.3     1  UNL1        0.0909
     22 N         140.1508  142.7311  166.4706 N.pl3   1  UNL1       -0.3077
     23 C         139.6476  141.5016  165.7741 C.3     1  UNL1        0.0901
     24 C         139.6677  140.0019  165.7936 C.3     1  UNL1        0.0921
     25 C         141.0345  142.7587  167.6823 C.ar    1  UNL1        0.0478
     26 C         140.4976  143.2579  168.9910 C.ar    1  UNL1        0.0145
     27 C         141.3814  143.2855  170.2027 C.ar    1  UNL1        0.0013
     28 C         142.8020  142.8139  170.1057 C.ar    1  UNL1        0.0001
     29 C         143.3389  142.3148  168.7971 C.ar    1  UNL1        0.0013
     30 C         142.4552  142.2872  167.5854 C.ar    1  UNL1        0.0145
@<TRIPOS>BOND
     1    10    11    1
     2    11    12   ar
     3    12    13   ar
     4    13    14   ar
     5    14    15   ar
     6    15     4    1
     7     4     5   ar
     8     5     6   ar
     9     6     7   ar
    10     7     3    1
    11     3     2    1
    12     2     1    1
    13     1    16    1
    14    16    17    1
    15    17    18    1
    16    18    19    1
    17    19    20    1
    18    20    21    1
    19    21    22    1
    20    22    25    1
    21    25    26   ar
    22    26    27   ar
    23    27    28   ar
    24    28    29   ar
    25    29    30   ar
    26    22    23    1
    27    23    24    1
    28     7     8   ar
    29     8     9    1
    30    15    11   ar
    31     8     4   ar
    32    24    17    1
    33    23    19    1
    34    30    25   ar
@<TRIPOS>MOLECULE
*****
 30 34 0 0 0
SMALL
GASTEIGER

@<TRIPOS>ATOM
      1 C         140.2233  144.8335  161.0714 C.3     1  UNL1        0.0294
      2 C         139.5130  145.4059  162.2622 C.3     1  UNL1        0.0666
      3 S         138.4790  144.5915  162.9816 S.3     1  UNL1       -0.0756
      4 C         139.4607  141.1668  164.5223 C.ar    1  UNL1        0.2029
      5 N         139.6213  142.0740  165.7061 N.ar    1  UNL1       -0.1250
      6 N         139.2732  143.4673  165.2730 N.ar    1  UNL1       -0.1220
      7 C         138.8973  143.4212  163.8216 C.ar    1  UNL1        0.1933
      8 N         139.0132  141.9995  163.3576 N.ar    1  UNL1       -0.2860
      9 C         138.7311  141.4984  161.9722 C.3     1  UNL1        0.1341
     10 C         138.0388  138.9669  166.4687 C.3     1  UNL1        0.0556
     11 C         139.0511  138.6757  165.4007 C.ar    1  UNL1        0.1001
     12 N         139.5876  137.3222  165.0399 N.ar    1  UNL1       -0.2085
     13 C         140.5727  137.4968  163.9223 C.ar    1  UNL1        0.2849
     14 O         140.6450  138.9583  163.5924 O.2     1  UNL1       -0.4283
     15 C         139.7046  139.6868  164.5061 C.ar    1  UNL1        0.1964
     16 C         141.7130  144.6603  161.0985 C.3     1  UNL1        0.0731
     17 N         142.3141  143.4309  161.7128 N.3     1  UNL1       -0.2712
     18 C         143.0504  142.3489  160.9800 C.3     1  UNL1        0.0738
     19 C         143.4757  141.3170  161.9821 C.3     1  UNL1        0.0372
     20 C         144.1937  140.0106  162.1485 C.3     1  UNL1        0.0245
     21 C         144.1640  139.6473  163.6036 C.3     1  UNL1        0.0909
     22 N         143.4276  140.7294  164.3365 N.pl3   1  UNL1       -0.3077
     23 C         143.0023  141.7613  163.3343 C.3     1  UNL1        0.0901
     24 C         142.2844  143.0678  163.1679 C.3     1  UNL1        0.0921
     25 C         143.1631  140.7721  165.8124 C.ar    1  UNL1        0.0478
     26 C         143.1953  142.0819  166.5426 C.ar    1  UNL1        0.0145
     27 C         142.9308  142.1246  168.0184 C.ar    1  UNL1        0.0013
     28 C         142.6341  140.8573  168.7641 C.ar    1  UNL1        0.0001
     29 C         142.6019  139.5474  168.0339 C.ar    1  UNL1        0.0013
     30 C         142.8664  139.5048  166.5581 C.ar    1  UNL1        0.0145
@<TRIPOS>BOND
     1    10    11    1
     2    11    12   ar
     3    12    13   ar
     4    13    14   ar
     5    14    15   ar
     6    15     4    1
     7     4     5   ar
     8     5     6   ar
     9     6     7   ar
    10     7     3    1
    11     3     2    1
    12     2     1    1
    13     1    16    1
    14    16    17    1
    15    17    18    1
    16    18    19    1
    17    19    20    1
    18    20    21    1
    19    21    22    1
    20    22    25    1
    21    25    26   ar
    22    26    27   ar
    23    27    28   ar
    24    28    29   ar
    25    29    30   ar
    26    22    23    1
    27    23    24    1
    28     7     8   ar
    29     8     9    1
    30    15    11   ar
    31     8     4   ar
    32    24    17    1
    33    23    19    1
    34    30    25   ar
