@<TRIPOS>MOLECULE
*****
 30 32 0 0 0
SMALL
GASTEIGER

@<TRIPOS>ATOM
      1 C         140.9284  138.3668  162.9051 C.ar    1  UNL1        0.2209
      2 N         141.4804  137.4864  161.8232 N.ar    1  UNL1       -0.2096
      3 C         142.3362  138.0749  160.7410 C.ar    1  UNL1        0.1330
      4 C         142.6400  139.5438  160.7406 C.ar    1  UNL1        0.1783
      5 F         143.4959  140.1323  159.6583 F       1  UNL1       -0.2009
      6 C         142.0881  140.4242  161.8223 C.ar    1  UNL1        0.1303
      7 N         141.2322  139.8357  162.9046 N.ar    1  UNL1       -0.2097
      8 C         142.3919  141.8931  161.8218 C.ar    1  UNL1        0.1003
      9 C         141.9062  142.8937  160.8154 C.ar    1  UNL1        0.1189
     10 N         142.4489  144.2383  161.1992 N.ar    1  UNL1       -0.2293
     11 C         143.2701  144.0689  162.4430 C.ar    1  UNL1        0.1208
     12 C         143.9985  145.1576  163.1737 C.3     1  UNL1        0.0718
     13 N         143.2348  142.6195  162.8278 N.ar    1  UNL1       -0.3155
     14 C         143.9219  142.0044  164.0108 C.3     1  UNL1        0.0868
     15 C         145.2392  141.3088  163.8352 C.3     1  UNL1        0.0245
     16 C         143.2917  142.0850  165.3697 C.3     1  UNL1        0.0245
     17 N         140.0726  137.7783  163.9873 N.pl3   1  UNL1       -0.2825
     18 H         139.6013  136.9276  163.8342 H       1  UNL1        0.1551
     19 C         139.6593  139.9011  167.9335 C.ar    1  UNL1        0.0808
     20 C         138.4422  139.3679  167.2377 C.ar    1  UNL1        0.0080
     21 C         138.5800  138.6603  165.9222 C.ar    1  UNL1        0.0150
     22 C         139.9348  138.4859  165.3027 C.ar    1  UNL1        0.0527
     23 C         141.1519  139.0191  165.9985 C.ar    1  UNL1        0.0444
     24 C         141.0142  139.7267  167.3140 C.ar    1  UNL1        0.1457
     25 F         142.2314  140.2599  168.0098 F       1  UNL1       -0.2040
     26 C         139.8432  142.7374  170.7032 C.3     1  UNL1        0.1109
     27 N         139.9810  142.0298  169.3878 N.am    1  UNL1       -0.2991
     28 C         139.5216  140.6087  169.2489 C.2     1  UNL1        0.2481
     29 O         138.9245  139.8952  170.4255 O.2     1  UNL1       -0.2701
     30 H         140.3729  142.4982  168.6156 H       1  UNL1        0.1498
@<TRIPOS>BOND
     1    26    27    1
     2    27    28   am
     3    28    29    2
     4    28    19    1
     5    19    20   ar
     6    20    21   ar
     7    21    22   ar
     8    22    17    1
     9    17     1    1
    10     1     2   ar
    11     2     3   ar
    12     3     4   ar
    13     4     5    1
    14     4     6   ar
    15     6     8    1
    16     8     9   ar
    17     9    10   ar
    18    10    11   ar
    19    11    12    1
    20    11    13   ar
    21    13    14    1
    22    14    15    1
    23    14    16    1
    24     6     7   ar
    25    22    23   ar
    26    23    24   ar
    27    24    25    1
    28    24    19   ar
    29     7     1   ar
    30    13     8   ar
    31    27    30    1
    32    17    18    1
@<TRIPOS>MOLECULE
*****
 30 32 0 0 0
SMALL
GASTEIGER

@<TRIPOS>ATOM
      1 C         138.0840  140.8380  163.3944 C.ar    1  UNL1        0.2209
      2 N         138.0743  139.5359  162.6495 N.ar    1  UNL1       -0.2096
      3 C         138.6261  138.2990  163.2942 C.ar    1  UNL1        0.1330
      4 C         139.1876  138.3641  164.6836 C.ar    1  UNL1        0.1783
      5 F         139.7394  137.1271  165.3282 F       1  UNL1       -0.2009
      6 C         139.1973  139.6660  165.4284 C.ar    1  UNL1        0.1303
      7 N         138.6455  140.9030  164.7838 N.ar    1  UNL1       -0.2097
      8 C         139.7588  139.7311  166.8178 C.ar    1  UNL1        0.1003
      9 C         138.9637  139.7727  168.0891 C.ar    1  UNL1        0.1189
     10 N         139.9275  139.8333  169.2369 N.ar    1  UNL1       -0.2293
     11 C         141.3182  139.8291  168.6750 C.ar    1  UNL1        0.1208
     12 C         142.5900  139.8792  169.4688 C.3     1  UNL1        0.0718
     13 N         141.2140  139.7659  167.1800 N.ar    1  UNL1       -0.3155
     14 C         142.3632  139.7418  166.2163 C.3     1  UNL1        0.0868
     15 C         142.9566  141.0285  165.7241 C.3     1  UNL1        0.0245
     16 C         142.9192  138.4308  165.7447 C.3     1  UNL1        0.0245
     17 N         137.5323  142.0749  162.7497 N.pl3   1  UNL1       -0.2825
     18 H         136.6396  142.4050  163.0018 H       1  UNL1        0.1551
     19 C         139.9569  144.2768  159.6639 C.ar    1  UNL1        0.0808
     20 C         139.2245  143.0231  159.2875 C.ar    1  UNL1        0.0080
     21 C         138.4163  142.2891  160.3161 C.ar    1  UNL1        0.0150
     22 C         138.3405  142.8089  161.7211 C.ar    1  UNL1        0.0527
     23 C         139.0728  144.0626  162.0975 C.ar    1  UNL1        0.0444
     24 C         139.8810  144.7966  161.0688 C.ar    1  UNL1        0.1457
     25 F         140.6133  146.0505  161.4453 F       1  UNL1       -0.2040
     26 C         140.9303  146.1933  156.3278 C.3     1  UNL1        0.1109
     27 N         140.1221  145.4594  157.3564 N.am    1  UNL1       -0.2991
     28 C         140.7651  145.0108  158.6352 C.2     1  UNL1        0.2481
     29 O         142.2162  145.2963  158.8854 O.2     1  UNL1       -0.2701
     30 H         139.1697  145.2720  157.1922 H       1  UNL1        0.1498
@<TRIPOS>BOND
     1    26    27    1
     2    27    28   am
     3    28    29    2
     4    28    19    1
     5    19    20   ar
     6    20    21   ar
     7    21    22   ar
     8    22    17    1
     9    17     1    1
    10     1     2   ar
    11     2     3   ar
    12     3     4   ar
    13     4     5    1
    14     4     6   ar
    15     6     8    1
    16     8     9   ar
    17     9    10   ar
    18    10    11   ar
    19    11    12    1
    20    11    13   ar
    21    13    14    1
    22    14    15    1
    23    14    16    1
    24     6     7   ar
    25    22    23   ar
    26    23    24   ar
    27    24    25    1
    28    24    19   ar
    29     7     1   ar
    30    13     8   ar
    31    27    30    1
    32    17    18    1
@<TRIPOS>MOLECULE
*****
 30 32 0 0 0
SMALL
GASTEIGER

@<TRIPOS>ATOM
      1 C         142.2350  139.3176  163.2120 C.ar    1  UNL1        0.2209
      2 N         143.5190  139.0000  162.5045 N.ar    1  UNL1       -0.2096
      3 C         144.0152  139.8993  161.4113 C.ar    1  UNL1        0.1330
      4 C         143.2275  141.1161  161.0256 C.ar    1  UNL1        0.1783
      5 F         143.7238  142.0153  159.9323 F       1  UNL1       -0.2009
      6 C         141.9435  141.4337  161.7330 C.ar    1  UNL1        0.1303
      7 N         141.4473  140.5344  162.8263 N.ar    1  UNL1       -0.2097
      8 C         141.1558  142.6505  161.3473 C.ar    1  UNL1        0.1003
      9 C         140.3479  142.8172  160.0945 C.ar    1  UNL1        0.1189
     10 N         139.7304  144.1840  160.1195 N.ar    1  UNL1       -0.2293
     11 C         140.1566  144.8620  161.3878 C.ar    1  UNL1        0.1208
     12 C         139.7699  146.2449  161.8213 C.3     1  UNL1        0.0718
     13 N         141.0375  143.9142  162.1466 N.ar    1  UNL1       -0.3155
     14 C         141.6863  144.1830  163.4721 C.3     1  UNL1        0.0868
     15 C         141.0949  143.6114  164.7264 C.3     1  UNL1        0.0245
     16 C         142.9267  145.0236  163.5432 C.3     1  UNL1        0.0245
     17 N         141.7388  138.4183  164.3052 N.pl3   1  UNL1       -0.2825
     18 H         141.7088  137.4442  164.1657 H       1  UNL1        0.1551
     19 C         140.3876  140.1730  168.2225 C.ar    1  UNL1        0.0808
     20 C         139.3833  139.8695  167.1505 C.ar    1  UNL1        0.0080
     21 C         139.8337  139.2846  165.8447 C.ar    1  UNL1        0.0150
     22 C         141.2884  139.0032  165.6110 C.ar    1  UNL1        0.0527
     23 C         142.2927  139.3067  166.6830 C.ar    1  UNL1        0.0444
     24 C         141.8423  139.8916  167.9888 C.ar    1  UNL1        0.1457
     25 F         142.8467  140.1951  169.0608 F       1  UNL1       -0.2040
     26 C         139.5557  142.8247  171.0556 C.3     1  UNL1        0.1109
     27 N         140.0061  142.2398  169.7498 N.am    1  UNL1       -0.2991
     28 C         139.9372  140.7579  169.5283 C.2     1  UNL1        0.2481
     29 O         139.4179  139.8609  170.6125 O.2     1  UNL1       -0.2701
     30 H         140.3470  142.8286  169.0382 H       1  UNL1        0.1498
@<TRIPOS>BOND
     1    26    27    1
     2    27    28   am
     3    28    29    2
     4    28    19    1
     5    19    20   ar
     6    20    21   ar
     7    21    22   ar
     8    22    17    1
     9    17     1    1
    10     1     2   ar
    11     2     3   ar
    12     3     4   ar
    13     4     5    1
    14     4     6   ar
    15     6     8    1
    16     8     9   ar
    17     9    10   ar
    18    10    11   ar
    19    11    12    1
    20    11    13   ar
    21    13    14    1
    22    14    15    1
    23    14    16    1
    24     6     7   ar
    25    22    23   ar
    26    23    24   ar
    27    24    25    1
    28    24    19   ar
    29     7     1   ar
    30    13     8   ar
    31    27    30    1
    32    17    18    1
@<TRIPOS>MOLECULE
*****
 30 32 0 0 0
SMALL
GASTEIGER

@<TRIPOS>ATOM
      1 C         139.3236  138.4735  162.8875 C.ar    1  UNL1        0.2209
      2 N         139.3589  137.7612  161.5678 N.ar    1  UNL1       -0.2096
      3 C         139.3032  138.5455  160.2904 C.ar    1  UNL1        0.1330
      4 C         139.2121  140.0422  160.3327 C.ar    1  UNL1        0.1783
      5 F         139.1563  140.8265  159.0552 F       1  UNL1       -0.2009
      6 C         139.1767  140.7544  161.6523 C.ar    1  UNL1        0.1303
      7 N         139.2325  139.9701  162.9297 N.ar    1  UNL1       -0.2097
      8 C         139.0856  142.2511  161.6945 C.ar    1  UNL1        0.1003
      9 C         137.9213  143.0496  162.2012 C.ar    1  UNL1        0.1189
     10 N         138.2589  144.5040  162.0573 N.ar    1  UNL1       -0.2293
     11 C         139.6319  144.6044  161.4617 C.ar    1  UNL1        0.1208
     12 C         140.3652  145.8742  161.1458 C.3     1  UNL1        0.0718
     13 N         140.1428  143.2120  161.2375 N.ar    1  UNL1       -0.3155
     14 C         141.4768  142.8451  160.6580 C.3     1  UNL1        0.0868
     15 C         141.7148  142.9741  159.1826 C.3     1  UNL1        0.0245
     16 C         142.5729  142.3489  161.5539 C.3     1  UNL1        0.0245
     17 N         139.3793  137.6891  164.1648 N.pl3   1  UNL1       -0.2825
     18 H         139.4028  136.7053  164.1377 H       1  UNL1        0.1551
     19 C         139.4394  139.8330  168.1208 C.ar    1  UNL1        0.0808
     20 C         138.1737  139.1915  167.6346 C.ar    1  UNL1        0.0080
     21 C         138.1537  138.4768  166.3159 C.ar    1  UNL1        0.0150
     22 C         139.3994  138.4037  165.4835 C.ar    1  UNL1        0.0527
     23 C         140.6650  139.0453  165.9697 C.ar    1  UNL1        0.0444
     24 C         140.6850  139.7599  167.2884 C.ar    1  UNL1        0.1457
     25 F         141.9508  140.4014  167.7747 F       1  UNL1       -0.2040
     26 C         139.9485  142.6850  170.8332 C.3     1  UNL1        0.1109
     27 N         139.9285  141.9704  169.5145 N.am    1  UNL1       -0.2991
     28 C         139.4594  140.5476  169.4395 C.2     1  UNL1        0.2481
     29 O         139.0103  139.8395  170.6832 O.2     1  UNL1       -0.2701
     30 H         140.2232  142.4352  168.6982 H       1  UNL1        0.1498
@<TRIPOS>BOND
     1    26    27    1
     2    27    28   am
     3    28    29    2
     4    28    19    1
     5    19    20   ar
     6    20    21   ar
     7    21    22   ar
     8    22    17    1
     9    17     1    1
    10     1     2   ar
    11     2     3   ar
    12     3     4   ar
    13     4     5    1
    14     4     6   ar
    15     6     8    1
    16     8     9   ar
    17     9    10   ar
    18    10    11   ar
    19    11    12    1
    20    11    13   ar
    21    13    14    1
    22    14    15    1
    23    14    16    1
    24     6     7   ar
    25    22    23   ar
    26    23    24   ar
    27    24    25    1
    28    24    19   ar
    29     7     1   ar
    30    13     8   ar
    31    27    30    1
    32    17    18    1
@<TRIPOS>MOLECULE
*****
 30 32 0 0 0
SMALL
GASTEIGER

@<TRIPOS>ATOM
      1 C         144.1536  141.7342  163.9723 C.ar    1  UNL1        0.2209
      2 N         145.1853  140.6472  163.9067 N.ar    1  UNL1       -0.2096
      3 C         144.9538  139.3493  164.6221 C.ar    1  UNL1        0.1330
      4 C         143.6906  139.1384  165.4031 C.ar    1  UNL1        0.1783
      5 F         143.4591  137.8404  166.1186 F       1  UNL1       -0.2009
      6 C         142.6590  140.2253  165.4687 C.ar    1  UNL1        0.1303
      7 N         142.8905  141.5233  164.7533 N.ar    1  UNL1       -0.2097
      8 C         141.3959  140.0143  166.2498 C.ar    1  UNL1        0.1003
      9 C         141.1018  140.5612  167.6152 C.ar    1  UNL1        0.1189
     10 N         139.7292  140.1043  168.0118 N.ar    1  UNL1       -0.2293
     11 C         139.1750  139.2751  166.8915 C.ar    1  UNL1        0.1208
     12 C         137.8273  138.6170  166.8648 C.3     1  UNL1        0.0718
     13 N         140.2050  139.2195  165.8025 N.ar    1  UNL1       -0.3155
     14 C         140.0682  138.4961  164.4956 C.3     1  UNL1        0.0868
     15 C         140.7759  137.1907  164.2831 C.3     1  UNL1        0.0245
     16 C         139.2235  139.0780  163.4010 C.3     1  UNL1        0.0245
     17 N         144.3851  143.0321  163.2569 N.pl3   1  UNL1       -0.2825
     18 H         145.1495  143.6011  163.5043 H       1  UNL1        0.1551
     19 C         141.5858  144.3253  159.9794 C.ar    1  UNL1        0.0808
     20 C         142.6471  143.3029  159.6994 C.ar    1  UNL1        0.0080
     21 C         143.5802  142.8718  160.7919 C.ar    1  UNL1        0.0150
     22 C         143.4520  143.4632  162.1644 C.ar    1  UNL1        0.0527
     23 C         142.3908  144.4855  162.4444 C.ar    1  UNL1        0.0444
     24 C         141.4577  144.9166  161.3519 C.ar    1  UNL1        0.1457
     25 F         140.3964  145.9390  161.6320 F       1  UNL1       -0.2040
     26 C         140.1093  146.3047  156.8727 C.3     1  UNL1        0.1109
     27 N         141.0424  145.8737  157.9652 N.am    1  UNL1       -0.2991
     28 C         140.6527  144.7563  158.8869 C.2     1  UNL1        0.2481
     29 O         139.3300  144.0700  158.7162 O.2     1  UNL1       -0.2701
     30 H         141.9106  146.3241  158.0773 H       1  UNL1        0.1498
@<TRIPOS>BOND
     1    26    27    1
     2    27    28   am
     3    28    29    2
     4    28    19    1
     5    19    20   ar
     6    20    21   ar
     7    21    22   ar
     8    22    17    1
     9    17     1    1
    10     1     2   ar
    11     2     3   ar
    12     3     4   ar
    13     4     5    1
    14     4     6   ar
    15     6     8    1
    16     8     9   ar
    17     9    10   ar
    18    10    11   ar
    19    11    12    1
    20    11    13   ar
    21    13    14    1
    22    14    15    1
    23    14    16    1
    24     6     7   ar
    25    22    23   ar
    26    23    24   ar
    27    24    25    1
    28    24    19   ar
    29     7     1   ar
    30    13     8   ar
    31    27    30    1
    32    17    18    1
@<TRIPOS>MOLECULE
*****
 30 32 0 0 0
SMALL
GASTEIGER

@<TRIPOS>ATOM
      1 C         141.5463  138.5624  162.5278 C.ar    1  UNL1        0.2209
      2 N         141.4328  137.7793  161.2534 N.ar    1  UNL1       -0.2096
      3 C         141.3426  138.4955  159.9385 C.ar    1  UNL1        0.1330
      4 C         141.3660  139.9947  159.8979 C.ar    1  UNL1        0.1783
      5 F         141.2759  140.7109  158.5830 F       1  UNL1       -0.2009
      6 C         141.4796  140.7778  161.1722 C.ar    1  UNL1        0.1303
      7 N         141.5697  140.0616  162.4872 N.ar    1  UNL1       -0.2097
      8 C         141.5030  142.2771  161.1316 C.ar    1  UNL1        0.1003
      9 C         142.5319  143.1245  160.4438 C.ar    1  UNL1        0.1189
     10 N         142.1664  144.5634  160.6588 N.ar    1  UNL1       -0.2293
     11 C         140.9116  144.6052  161.4796 C.ar    1  UNL1        0.1208
     12 C         140.1929  145.8426  161.9292 C.3     1  UNL1        0.0718
     13 N         140.5015  143.1922  161.7718 N.ar    1  UNL1       -0.3155
     14 C         139.3009  142.7687  162.5649 C.3     1  UNL1        0.0868
     15 C         139.4349  142.4753  164.0298 C.3     1  UNL1        0.0245
     16 C         137.9660  142.6385  161.8930 C.3     1  UNL1        0.0245
     17 N         141.6365  137.8462  163.8426 N.pl3   1  UNL1       -0.2825
     18 H         142.0024  136.9331  163.8817 H       1  UNL1        0.1551
     19 C         140.2342  139.8713  167.6086 C.ar    1  UNL1        0.0808
     20 C         141.7012  139.7711  167.3126 C.ar    1  UNL1        0.0080
     21 C         142.1686  139.0960  166.0573 C.ar    1  UNL1        0.0150
     22 C         141.1690  138.5212  165.0980 C.ar    1  UNL1        0.0527
     23 C         139.7020  138.6215  165.3940 C.ar    1  UNL1        0.0444
     24 C         139.2345  139.2965  166.6493 C.ar    1  UNL1        0.1457
     25 F         137.7674  139.3967  166.9453 F       1  UNL1       -0.2040
     26 C         139.7594  142.6128  170.4385 C.3     1  UNL1        0.1109
     27 N         140.2269  141.9378  169.1832 N.am    1  UNL1       -0.2991
     28 C         139.7667  140.5463  168.8639 C.2     1  UNL1        0.2481
     29 O         138.8392  139.8298  169.8000 O.2     1  UNL1       -0.2701
     30 H         140.8357  142.4081  168.5688 H       1  UNL1        0.1498
@<TRIPOS>BOND
     1    26    27    1
     2    27    28   am
     3    28    29    2
     4    28    19    1
     5    19    20   ar
     6    20    21   ar
     7    21    22   ar
     8    22    17    1
     9    17     1    1
    10     1     2   ar
    11     2     3   ar
    12     3     4   ar
    13     4     5    1
    14     4     6   ar
    15     6     8    1
    16     8     9   ar
    17     9    10   ar
    18    10    11   ar
    19    11    12    1
    20    11    13   ar
    21    13    14    1
    22    14    15    1
    23    14    16    1
    24     6     7   ar
    25    22    23   ar
    26    23    24   ar
    27    24    25    1
    28    24    19   ar
    29     7     1   ar
    30    13     8   ar
    31    27    30    1
    32    17    18    1
@<TRIPOS>MOLECULE
*****
 30 32 0 0 0
SMALL
GASTEIGER

@<TRIPOS>ATOM
      1 C         140.1013  138.2586  162.9218 C.ar    1  UNL1        0.2209
      2 N         138.7549  137.6355  162.6997 N.ar    1  UNL1       -0.2096
      3 C         137.7827  138.2695  161.7495 C.ar    1  UNL1        0.1330
      4 C         138.1567  139.5265  161.0214 C.ar    1  UNL1        0.1783
      5 F         137.1844  140.1604  160.0712 F       1  UNL1       -0.2009
      6 C         139.5030  140.1495  161.2435 C.ar    1  UNL1        0.1303
      7 N         140.4753  139.5156  162.1938 N.ar    1  UNL1       -0.2097
      8 C         139.8770  141.4065  160.5155 C.ar    1  UNL1        0.1003
      9 C         140.4129  141.4892  159.1169 C.ar    1  UNL1        0.1189
     10 N         140.6479  142.9353  158.7952 N.ar    1  UNL1       -0.2293
     11 C         140.2573  143.7464  159.9950 C.ar    1  UNL1        0.1208
     12 C         140.3303  145.2401  160.1112 C.3     1  UNL1        0.0718
     13 N         139.7809  142.8016  161.0582 N.ar    1  UNL1       -0.3155
     14 C         139.2938  143.1846  162.4242 C.3     1  UNL1        0.0868
     15 C         137.8266  143.3756  162.6712 C.3     1  UNL1        0.0245
     16 C         140.2739  143.3767  163.5434 C.3     1  UNL1        0.0245
     17 N         141.0735  137.6246  163.8720 N.pl3   1  UNL1       -0.2825
     18 H         141.4463  136.7352  163.6741 H       1  UNL1        0.1551
     19 C         142.2861  139.7882  167.6268 C.ar    1  UNL1        0.0808
     20 C         143.2801  138.9310  166.9008 C.ar    1  UNL1        0.0080
     21 C         142.8759  138.2099  165.6492 C.ar    1  UNL1        0.0150
     22 C         141.4777  138.3458  165.1236 C.ar    1  UNL1        0.0527
     23 C         140.4836  139.2030  165.8495 C.ar    1  UNL1        0.0444
     24 C         140.8878  139.9241  167.1012 C.ar    1  UNL1        0.1457
     25 F         139.8937  140.7813  167.8271 F       1  UNL1       -0.2040
     26 C         143.0555  142.7293  170.1778 C.3     1  UNL1        0.1109
     27 N         142.6513  142.0081  168.9262 N.am    1  UNL1       -0.2991
     28 C         142.6903  140.5094  168.8784 C.2     1  UNL1        0.2481
     29 O         143.1334  139.7319  170.0821 O.2     1  UNL1       -0.2701
     30 H         142.3605  142.5184  168.1362 H       1  UNL1        0.1498
@<TRIPOS>BOND
     1    26    27    1
     2    27    28   am
     3    28    29    2
     4    28    19    1
     5    19    20   ar
     6    20    21   ar
     7    21    22   ar
     8    22    17    1
     9    17     1    1
    10     1     2   ar
    11     2     3   ar
    12     3     4   ar
    13     4     5    1
    14     4     6   ar
    15     6     8    1
    16     8     9   ar
    17     9    10   ar
    18    10    11   ar
    19    11    12    1
    20    11    13   ar
    21    13    14    1
    22    14    15    1
    23    14    16    1
    24     6     7   ar
    25    22    23   ar
    26    23    24   ar
    27    24    25    1
    28    24    19   ar
    29     7     1   ar
    30    13     8   ar
    31    27    30    1
    32    17    18    1
@<TRIPOS>MOLECULE
*****
 30 32 0 0 0
SMALL
GASTEIGER

@<TRIPOS>ATOM
      1 C         144.0845  141.6854  164.2493 C.ar    1  UNL1        0.2209
      2 N         145.0586  140.5508  164.1313 N.ar    1  UNL1       -0.2096
      3 C         144.7817  139.2494  164.8238 C.ar    1  UNL1        0.1330
      4 C         143.5307  139.0826  165.6344 C.ar    1  UNL1        0.1783
      5 F         143.2538  137.7811  166.3270 F       1  UNL1       -0.2009
      6 C         142.5566  140.2171  165.7525 C.ar    1  UNL1        0.1303
      7 N         142.8335  141.5185  165.0600 N.ar    1  UNL1       -0.2097
      8 C         141.3056  140.0502  166.5632 C.ar    1  UNL1        0.1003
      9 C         140.0166  139.4524  166.0824 C.ar    1  UNL1        0.1189
     10 N         139.0383  139.4846  167.2190 N.ar    1  UNL1       -0.2293
     11 C         139.7226  140.1022  168.4023 C.ar    1  UNL1        0.1208
     12 C         139.1128  140.3303  169.7536 C.3     1  UNL1        0.0718
     13 N         141.1239  140.4518  167.9970 N.ar    1  UNL1       -0.3155
     14 C         142.1613  141.0909  168.8718 C.3     1  UNL1        0.0868
     15 C         142.9170  140.2617  169.8675 C.3     1  UNL1        0.0245
     16 C         142.4431  142.5593  168.7510 C.3     1  UNL1        0.0245
     17 N         144.3614  142.9868  163.5568 N.pl3   1  UNL1       -0.2825
     18 H         145.1215  143.5439  163.8415 H       1  UNL1        0.1551
     19 C         141.7178  144.3445  160.1777 C.ar    1  UNL1        0.0808
     20 C         142.7634  143.2962  159.9373 C.ar    1  UNL1        0.0080
     21 C         143.6446  142.8436  161.0637 C.ar    1  UNL1        0.0150
     22 C         143.4802  143.4394  162.4304 C.ar    1  UNL1        0.0527
     23 C         142.4347  144.4877  162.6708 C.ar    1  UNL1        0.0444
     24 C         141.5535  144.9402  161.5444 C.ar    1  UNL1        0.1457
     25 F         140.5079  145.9886  161.7849 F       1  UNL1       -0.2040
     26 C         140.4729  146.2313  156.9158 C.3     1  UNL1        0.1109
     27 N         141.3541  145.7788  158.0422 N.am    1  UNL1       -0.2991
     28 C         140.8367  144.7971  159.0513 C.2     1  UNL1        0.2481
     29 O         139.4380  144.2679  158.9341 O.2     1  UNL1       -0.2701
     30 H         142.2721  146.1261  158.1191 H       1  UNL1        0.1498
@<TRIPOS>BOND
     1    26    27    1
     2    27    28   am
     3    28    29    2
     4    28    19    1
     5    19    20   ar
     6    20    21   ar
     7    21    22   ar
     8    22    17    1
     9    17     1    1
    10     1     2   ar
    11     2     3   ar
    12     3     4   ar
    13     4     5    1
    14     4     6   ar
    15     6     8    1
    16     8     9   ar
    17     9    10   ar
    18    10    11   ar
    19    11    12    1
    20    11    13   ar
    21    13    14    1
    22    14    15    1
    23    14    16    1
    24     6     7   ar
    25    22    23   ar
    26    23    24   ar
    27    24    25    1
    28    24    19   ar
    29     7     1   ar
    30    13     8   ar
    31    27    30    1
    32    17    18    1
@<TRIPOS>MOLECULE
*****
 30 32 0 0 0
SMALL
GASTEIGER

@<TRIPOS>ATOM
      1 C         142.9823  142.4145  163.9799 C.ar    1  UNL1        0.2209
      2 N         142.4375  143.7668  163.6268 N.ar    1  UNL1       -0.2096
      3 C         141.2023  144.2786  164.3066 C.ar    1  UNL1        0.1330
      4 C         140.5118  143.4382  165.3396 C.ar    1  UNL1        0.1783
      5 F         139.2766  143.9502  166.0195 F       1  UNL1       -0.2009
      6 C         141.0566  142.0860  165.6927 C.ar    1  UNL1        0.1303
      7 N         142.2918  141.5741  165.0128 N.ar    1  UNL1       -0.2097
      8 C         140.3661  141.2457  166.7257 C.ar    1  UNL1        0.1003
      9 C         139.4937  140.0559  166.4550 C.ar    1  UNL1        0.1189
     10 N         139.0152  139.5224  167.7727 N.ar    1  UNL1       -0.2293
     11 C         139.5919  140.3825  168.8579 C.ar    1  UNL1        0.1208
     12 C         139.3723  140.2082  170.3315 C.3     1  UNL1        0.0718
     13 N         140.4268  141.4475  168.2108 N.ar    1  UNL1       -0.3155
     14 C         141.1886  142.5252  168.9237 C.3     1  UNL1        0.0868
     15 C         140.4555  143.6791  169.5411 C.3     1  UNL1        0.0245
     16 C         142.6837  142.4491  169.0193 C.3     1  UNL1        0.0245
     17 N         144.2175  141.9026  163.3000 N.pl3   1  UNL1       -0.2825
     18 H         145.0562  141.8106  163.8072 H       1  UNL1        0.1551
     19 C         144.0893  140.7878  158.9422 C.ar    1  UNL1        0.0808
     20 C         144.4191  142.1938  159.3472 C.ar    1  UNL1        0.0080
     21 C         144.4618  142.5655  160.7998 C.ar    1  UNL1        0.0150
     22 C         144.1747  141.5310  161.8474 C.ar    1  UNL1        0.0527
     23 C         143.8449  140.1249  161.4423 C.ar    1  UNL1        0.0444
     24 C         143.8022  139.7533  159.9897 C.ar    1  UNL1        0.1457
     25 F         143.4723  138.3471  159.5847 F       1  UNL1       -0.2040
     26 C         145.2779  139.7644  155.2967 C.3     1  UNL1        0.1109
     27 N         145.3206  140.1360  156.7493 N.am    1  UNL1       -0.2991
     28 C         144.0465  140.4162  157.4896 C.2     1  UNL1        0.2481
     29 O         142.7297  140.3247  156.7772 O.2     1  UNL1       -0.2701
     30 H         146.1850  140.1961  157.2168 H       1  UNL1        0.1498
@<TRIPOS>BOND
     1    26    27    1
     2    27    28   am
     3    28    29    2
     4    28    19    1
     5    19    20   ar
     6    20    21   ar
     7    21    22   ar
     8    22    17    1
     9    17     1    1
    10     1     2   ar
    11     2     3   ar
    12     3     4   ar
    13     4     5    1
    14     4     6   ar
    15     6     8    1
    16     8     9   ar
    17     9    10   ar
    18    10    11   ar
    19    11    12    1
    20    11    13   ar
    21    13    14    1
    22    14    15    1
    23    14    16    1
    24     6     7   ar
    25    22    23   ar
    26    23    24   ar
    27    24    25    1
    28    24    19   ar
    29     7     1   ar
    30    13     8   ar
    31    27    30    1
    32    17    18    1
