@<TRIPOS>MOLECULE
*****
 19 20 0 0 0
SMALL
GASTEIGER

@<TRIPOS>ATOM
      1 C         140.5342  140.4908  167.2640 C.ar    1  UNL1        0.0511
      2 C         141.9140  140.0261  166.9032 C.ar    1  UNL1        0.0163
      3 C         142.7896  139.3958  167.9453 C.ar    1  UNL1        0.0253
      4 C         142.2853  139.2301  169.3482 C.ar    1  UNL1        0.1365
      5 C         140.9056  139.6948  169.7090 C.ar    1  UNL1        0.1541
      6 O         140.4013  139.5291  171.1120 O.3     1  UNL1       -0.5039
      7 C         140.0300  140.3251  168.6669 C.ar    1  UNL1        0.0527
      8 H         140.9482  139.1354  171.7630 H       1  UNL1        0.2923
      9 C         139.8291  142.5707  165.8759 C.3     1  UNL1        0.1122
     10 N         139.6586  141.1211  166.2218 N.pl3   1  UNL1       -0.3040
     11 C         138.6126  140.3019  165.5256 C.3     1  UNL1        0.1122
     12 N         143.1609  138.5998  170.3904 N.2     1  UNL1       -0.1435
     13 N         143.6989  137.2154  170.1806 N.2     1  UNL1       -0.1284
     14 C         144.5745  136.5851  171.2227 C.ar    1  UNL1        0.1838
     15 C         144.4251  135.1280  171.5463 C.ar    1  UNL1        0.0406
     16 C         145.3007  134.4976  172.5885 C.ar    1  UNL1        0.0048
     17 C         146.3256  135.3244  173.3070 C.ar    1  UNL1        0.0208
     18 C         146.4749  136.7814  172.9833 C.ar    1  UNL1        0.1006
     19 N         145.5993  137.4117  171.9412 N.ar    1  UNL1       -0.2236
@<TRIPOS>BOND
     1     9    10    1
     2    10    11    1
     3    10     1    1
     4     1     2   ar
     5     2     3   ar
     6     3     4   ar
     7     4    12    1
     8    12    13    2
     9    13    14    1
    10    14    15   ar
    11    15    16   ar
    12    16    17   ar
    13    17    18   ar
    14    18    19   ar
    15     4     5   ar
    16     5     6    1
    17     5     7   ar
    18     7     1   ar
    19    19    14   ar
    20     6     8    1
@<TRIPOS>MOLECULE
*****
 19 20 0 0 0
SMALL
GASTEIGER

@<TRIPOS>ATOM
      1 C         140.5578  141.8592  167.4180 C.ar    1  UNL1        0.0511
      2 C         139.8877  140.5513  167.1175 C.ar    1  UNL1        0.0163
      3 C         139.1986  139.7925  168.2127 C.ar    1  UNL1        0.0253
      4 C         139.1795  140.3417  169.6084 C.ar    1  UNL1        0.1365
      5 C         139.8496  141.6496  169.9089 C.ar    1  UNL1        0.1541
      6 O         139.8306  142.1989  171.3046 O.3     1  UNL1       -0.5039
      7 C         140.5387  142.4083  168.8137 C.ar    1  UNL1        0.0527
      8 H         139.4001  141.7249  171.9888 H       1  UNL1        0.2923
      9 C         140.4377  143.3466  165.2912 C.3     1  UNL1        0.1122
     10 N         141.2469  142.6179  166.3228 N.pl3   1  UNL1       -0.3040
     11 C         142.7452  142.6479  166.2591 C.3     1  UNL1        0.1122
     12 N         138.4904  139.5830  170.7036 N.2     1  UNL1       -0.1435
     13 N         137.1814  138.9015  170.4350 N.2     1  UNL1       -0.1284
     14 C         136.4923  138.1428  171.5302 C.ar    1  UNL1        0.1838
     15 C         135.2408  138.6908  172.1496 C.ar    1  UNL1        0.0406
     16 C         134.5517  137.9321  173.2448 C.ar    1  UNL1        0.0048
     17 C         135.1140  136.6254  173.7206 C.ar    1  UNL1        0.0208
     18 C         136.3655  136.0775  173.1013 C.ar    1  UNL1        0.1006
     19 N         137.0546  136.8362  172.0061 N.ar    1  UNL1       -0.2236
@<TRIPOS>BOND
     1     9    10    1
     2    10    11    1
     3    10     1    1
     4     1     2   ar
     5     2     3   ar
     6     3     4   ar
     7     4    12    1
     8    12    13    2
     9    13    14    1
    10    14    15   ar
    11    15    16   ar
    12    16    17   ar
    13    17    18   ar
    14    18    19   ar
    15     4     5   ar
    16     5     6    1
    17     5     7   ar
    18     7     1   ar
    19    19    14   ar
    20     6     8    1
@<TRIPOS>MOLECULE
*****
 19 20 0 0 0
SMALL
GASTEIGER

@<TRIPOS>ATOM
      1 C         141.1488  141.0532  168.5096 C.ar    1  UNL1        0.0511
      2 C         142.5737  140.6987  168.8159 C.ar    1  UNL1        0.0163
      3 C         143.4212  141.6329  169.6276 C.ar    1  UNL1        0.0253
      4 C         142.8437  142.9217  170.1331 C.ar    1  UNL1        0.1365
      5 C         141.4188  143.2763  169.8267 C.ar    1  UNL1        0.1541
      6 O         140.8413  144.5652  170.3322 O.3     1  UNL1       -0.5039
      7 C         140.5713  142.3420  169.0150 C.ar    1  UNL1        0.0527
      8 H         141.3707  145.1488  170.8392 H       1  UNL1        0.2923
      9 C         138.9324  139.7386  168.1789 C.3     1  UNL1        0.1122
     10 N         140.3013  140.1190  167.6979 N.pl3   1  UNL1       -0.3040
     11 C         140.8226  139.5651  166.4051 C.3     1  UNL1        0.1122
     12 N         143.6912  143.8560  170.9448 N.2     1  UNL1       -0.1435
     13 N         145.1550  143.9916  170.6465 N.2     1  UNL1       -0.1284
     14 C         146.0025  144.9258  171.4582 C.ar    1  UNL1        0.1838
     15 C         147.2093  144.4064  172.1820 C.ar    1  UNL1        0.0406
     16 C         148.0568  145.3406  172.9937 C.ar    1  UNL1        0.0048
     17 C         147.6975  146.7943  173.0817 C.ar    1  UNL1        0.0208
     18 C         146.4906  147.3137  172.3580 C.ar    1  UNL1        0.1006
     19 N         145.6431  146.3794  171.5462 N.ar    1  UNL1       -0.2236
@<TRIPOS>BOND
     1     9    10    1
     2    10    11    1
     3    10     1    1
     4     1     2   ar
     5     2     3   ar
     6     3     4   ar
     7     4    12    1
     8    12    13    2
     9    13    14    1
    10    14    15   ar
    11    15    16   ar
    12    16    17   ar
    13    17    18   ar
    14    18    19   ar
    15     4     5   ar
    16     5     6    1
    17     5     7   ar
    18     7     1   ar
    19    19    14   ar
    20     6     8    1
@<TRIPOS>MOLECULE
*****
 19 20 0 0 0
SMALL
GASTEIGER

@<TRIPOS>ATOM
      1 C         139.1627  140.0150  160.5757 C.ar    1  UNL1        0.0511
      2 C         140.3834  139.9020  161.4401 C.ar    1  UNL1        0.0163
      3 C         140.3121  140.2756  162.8911 C.ar    1  UNL1        0.0253
      4 C         139.0202  140.7623  163.4776 C.ar    1  UNL1        0.1365
      5 C         137.7996  140.8754  162.6132 C.ar    1  UNL1        0.1541
      6 O         136.5076  141.3621  163.1998 O.3     1  UNL1       -0.5039
      7 C         137.8708  140.5017  161.1623 C.ar    1  UNL1        0.0527
      8 H         136.4631  141.5955  164.1062 H       1  UNL1        0.2923
      9 C         138.4284  140.4024  158.1139 C.3     1  UNL1        0.1122
     10 N         139.2340  139.6414  159.1247 N.pl3   1  UNL1       -0.3040
     11 C         140.1108  138.5067  158.6846 C.3     1  UNL1        0.1122
     12 N         138.9490  141.1360  164.9286 N.2     1  UNL1       -0.1435
     13 N         140.1544  140.9703  165.8058 N.2     1  UNL1       -0.1284
     14 C         140.0831  141.3440  167.2568 C.ar    1  UNL1        0.1838
     15 C         140.5444  142.6988  167.7059 C.ar    1  UNL1        0.0406
     16 C         140.4731  143.0725  169.1568 C.ar    1  UNL1        0.0048
     17 C         139.9406  142.0913  170.1587 C.ar    1  UNL1        0.0208
     18 C         139.4794  140.7365  169.7096 C.ar    1  UNL1        0.1006
     19 N         139.5507  140.3628  168.2586 N.ar    1  UNL1       -0.2236
@<TRIPOS>BOND
     1     9    10    1
     2    10    11    1
     3    10     1    1
     4     1     2   ar
     5     2     3   ar
     6     3     4   ar
     7     4    12    1
     8    12    13    2
     9    13    14    1
    10    14    15   ar
    11    15    16   ar
    12    16    17   ar
    13    17    18   ar
    14    18    19   ar
    15     4     5   ar
    16     5     6    1
    17     5     7   ar
    18     7     1   ar
    19    19    14   ar
    20     6     8    1
@<TRIPOS>MOLECULE
*****
 19 20 0 0 0
SMALL
GASTEIGER

@<TRIPOS>ATOM
      1 C         140.9533  143.9752  163.5376 C.ar    1  UNL1        0.0511
      2 C         141.9700  143.4376  162.5747 C.ar    1  UNL1        0.0163
      3 C         142.0286  143.9673  161.1726 C.ar    1  UNL1        0.0253
      4 C         141.0705  145.0346  160.7333 C.ar    1  UNL1        0.1365
      5 C         140.0539  145.5722  161.6963 C.ar    1  UNL1        0.1541
      6 O         139.0957  146.6396  161.2571 O.3     1  UNL1       -0.5039
      7 C         139.9952  145.0425  163.0984 C.ar    1  UNL1        0.0527
      8 H         139.1323  146.9704  160.3812 H       1  UNL1        0.2923
      9 C         139.6380  143.5929  165.7453 C.3     1  UNL1        0.1122
     10 N         140.8947  143.4456  164.9398 N.pl3   1  UNL1       -0.3040
     11 C         142.0928  142.7685  165.5364 C.3     1  UNL1        0.1122
     12 N         141.1291  145.5643  159.3312 N.2     1  UNL1       -0.1435
     13 N         139.8604  145.8456  158.5821 N.2     1  UNL1       -0.1284
     14 C         139.9191  146.3753  157.1800 C.ar    1  UNL1        0.1838
     15 C         140.8967  145.7972  156.2001 C.ar    1  UNL1        0.0406
     16 C         140.9553  146.3268  154.7979 C.ar    1  UNL1        0.0048
     17 C         140.0363  147.4347  154.3757 C.ar    1  UNL1        0.0208
     18 C         139.0587  148.0127  155.3555 C.ar    1  UNL1        0.1006
     19 N         139.0001  147.4831  156.7577 N.ar    1  UNL1       -0.2236
@<TRIPOS>BOND
     1     9    10    1
     2    10    11    1
     3    10     1    1
     4     1     2   ar
     5     2     3   ar
     6     3     4   ar
     7     4    12    1
     8    12    13    2
     9    13    14    1
    10    14    15   ar
    11    15    16   ar
    12    16    17   ar
    13    17    18   ar
    14    18    19   ar
    15     4     5   ar
    16     5     6    1
    17     5     7   ar
    18     7     1   ar
    19    19    14   ar
    20     6     8    1
@<TRIPOS>MOLECULE
*****
 19 20 0 0 0
SMALL
GASTEIGER

@<TRIPOS>ATOM
      1 C         138.9294  138.9041  165.0538 C.ar    1  UNL1        0.0511
      2 C         138.1218  139.6641  164.0438 C.ar    1  UNL1        0.0163
      3 C         138.3748  139.4662  162.5786 C.ar    1  UNL1        0.0253
      4 C         139.4354  138.5082  162.1234 C.ar    1  UNL1        0.1365
      5 C         140.2430  137.7481  163.1333 C.ar    1  UNL1        0.1541
      6 O         141.3037  136.7901  162.6781 O.3     1  UNL1       -0.5039
      7 C         139.9900  137.9461  164.5985 C.ar    1  UNL1        0.0527
      8 H         141.4618  136.6664  161.7628 H       1  UNL1        0.2923
      9 C         139.5767  139.9935  167.3218 C.3     1  UNL1        0.1122
     10 N         138.6764  139.1020  166.5190 N.pl3   1  UNL1       -0.3040
     11 C         137.5231  138.4084  167.1813 C.3     1  UNL1        0.1122
     12 N         139.6885  138.3103  160.6582 N.2     1  UNL1       -0.1435
     13 N         141.0717  138.4865  160.1054 N.2     1  UNL1       -0.1284
     14 C         141.3247  138.2886  158.6402 C.ar    1  UNL1        0.1838
     15 C         142.7224  138.3732  158.1023 C.ar    1  UNL1        0.0406
     16 C         142.9754  138.1753  156.6371 C.ar    1  UNL1        0.0048
     17 C         141.8307  137.8927  155.7098 C.ar    1  UNL1        0.0208
     18 C         140.4331  137.8081  156.2477 C.ar    1  UNL1        0.1006
     19 N         140.1801  138.0060  157.7129 N.ar    1  UNL1       -0.2236
@<TRIPOS>BOND
     1     9    10    1
     2    10    11    1
     3    10     1    1
     4     1     2   ar
     5     2     3   ar
     6     3     4   ar
     7     4    12    1
     8    12    13    2
     9    13    14    1
    10    14    15   ar
    11    15    16   ar
    12    16    17   ar
    13    17    18   ar
    14    18    19   ar
    15     4     5   ar
    16     5     6    1
    17     5     7   ar
    18     7     1   ar
    19    19    14   ar
    20     6     8    1
@<TRIPOS>MOLECULE
*****
 19 20 0 0 0
SMALL
GASTEIGER

@<TRIPOS>ATOM
      1 C         138.5025  139.3177  164.5970 C.ar    1  UNL1        0.0511
      2 C         138.6801  138.1554  163.6656 C.ar    1  UNL1        0.0163
      3 C         138.4077  138.3204  162.1998 C.ar    1  UNL1        0.0253
      4 C         137.9577  139.6476  161.6654 C.ar    1  UNL1        0.1365
      5 C         137.7800  140.8100  162.5967 C.ar    1  UNL1        0.1541
      6 O         137.3300  142.1373  162.0622 O.3     1  UNL1       -0.5039
      7 C         138.0524  140.6450  164.0625 C.ar    1  UNL1        0.0527
      8 H         137.1598  142.2404  161.1466 H       1  UNL1        0.2923
      9 C         137.7449  138.5192  166.9504 C.3     1  UNL1        0.1122
     10 N         138.7749  139.1527  166.0628 N.pl3   1  UNL1       -0.3040
     11 C         140.0772  139.6212  166.6410 C.3     1  UNL1        0.1122
     12 N         137.6853  139.8126  160.1996 N.2     1  UNL1       -0.1435
     13 N         138.2785  140.9699  159.4521 N.2     1  UNL1       -0.1284
     14 C         138.0061  141.1349  157.9863 C.ar    1  UNL1        0.1838
     15 C         137.6400  142.4825  157.4385 C.ar    1  UNL1        0.0406
     16 C         137.3676  142.6475  155.9727 C.ar    1  UNL1        0.0048
     17 C         137.4613  141.4648  155.0547 C.ar    1  UNL1        0.0208
     18 C         137.8274  140.1173  155.6025 C.ar    1  UNL1        0.1006
     19 N         138.0998  139.9523  157.0683 N.ar    1  UNL1       -0.2236
@<TRIPOS>BOND
     1     9    10    1
     2    10    11    1
     3    10     1    1
     4     1     2   ar
     5     2     3   ar
     6     3     4   ar
     7     4    12    1
     8    12    13    2
     9    13    14    1
    10    14    15   ar
    11    15    16   ar
    12    16    17   ar
    13    17    18   ar
    14    18    19   ar
    15     4     5   ar
    16     5     6    1
    17     5     7   ar
    18     7     1   ar
    19    19    14   ar
    20     6     8    1
@<TRIPOS>MOLECULE
*****
 19 20 0 0 0
SMALL
GASTEIGER

@<TRIPOS>ATOM
      1 C         143.6698  142.7768  160.4363 C.ar    1  UNL1        0.0511
      2 C         142.4199  142.9173  161.2535 C.ar    1  UNL1        0.0163
      3 C         142.4666  142.7062  162.7379 C.ar    1  UNL1        0.0253
      4 C         143.7632  142.3547  163.4050 C.ar    1  UNL1        0.1365
      5 C         145.0132  142.2142  162.5878 C.ar    1  UNL1        0.1541
      6 O         146.3099  141.8626  163.2549 O.3     1  UNL1       -0.5039
      7 C         144.9665  142.4253  161.1035 C.ar    1  UNL1        0.0527
      8 H         146.3391  141.7308  164.1821 H       1  UNL1        0.2923
      9 C         144.5592  142.2311  158.0570 C.3     1  UNL1        0.1122
     10 N         143.6231  142.9879  158.9520 N.pl3   1  UNL1       -0.3040
     11 C         142.6404  143.9558  158.3626 C.3     1  UNL1        0.1122
     12 N         143.8100  142.1436  164.8893 N.2     1  UNL1       -0.1435
     13 N         142.7635  141.3047  165.5609 N.2     1  UNL1       -0.1284
     14 C         142.8102  141.0936  167.0452 C.ar    1  UNL1        0.1838
     15 C         142.4771  139.7498  167.6225 C.ar    1  UNL1        0.0406
     16 C         142.5238  139.5387  169.1069 C.ar    1  UNL1        0.0048
     17 C         142.9036  140.6715  170.0139 C.ar    1  UNL1        0.0208
     18 C         143.2366  142.0152  169.4366 C.ar    1  UNL1        0.1006
     19 N         143.1899  142.2263  167.9523 N.ar    1  UNL1       -0.2236
@<TRIPOS>BOND
     1     9    10    1
     2    10    11    1
     3    10     1    1
     4     1     2   ar
     5     2     3   ar
     6     3     4   ar
     7     4    12    1
     8    12    13    2
     9    13    14    1
    10    14    15   ar
    11    15    16   ar
    12    16    17   ar
    13    17    18   ar
    14    18    19   ar
    15     4     5   ar
    16     5     6    1
    17     5     7   ar
    18     7     1   ar
    19    19    14   ar
    20     6     8    1
@<TRIPOS>MOLECULE
*****
 19 20 0 0 0
SMALL
GASTEIGER

@<TRIPOS>ATOM
      1 C         144.2914  141.1036  161.4862 C.ar    1  UNL1        0.0511
      2 C         143.9324  141.6173  160.1234 C.ar    1  UNL1        0.0163
      3 C         143.3541  140.6862  159.0994 C.ar    1  UNL1        0.0253
      4 C         143.1348  139.2415  159.4381 C.ar    1  UNL1        0.1365
      5 C         143.4939  138.7279  160.8009 C.ar    1  UNL1        0.1541
      6 O         143.2746  137.2832  161.1396 O.3     1  UNL1       -0.5039
      7 C         144.0722  139.6590  161.8249 C.ar    1  UNL1        0.0527
      8 H         142.9134  136.7015  160.4999 H       1  UNL1        0.2923
      9 C         145.7898  141.5057  163.5702 C.3     1  UNL1        0.1122
     10 N         144.8697  142.0347  162.5103 N.pl3   1  UNL1       -0.3040
     11 C         144.5279  143.4948  162.4744 C.3     1  UNL1        0.1122
     12 N         142.5566  138.3105  158.4140 N.2     1  UNL1       -0.1435
     13 N         143.2134  136.9888  158.1461 N.2     1  UNL1       -0.1284
     14 C         142.6351  136.0578  157.1221 C.ar    1  UNL1        0.1838
     15 C         143.1330  134.6461  157.0258 C.ar    1  UNL1        0.0406
     16 C         142.5548  133.7150  156.0017 C.ar    1  UNL1        0.0048
     17 C         141.4785  134.1957  155.0739 C.ar    1  UNL1        0.0208
     18 C         140.9806  135.6073  155.1702 C.ar    1  UNL1        0.1006
     19 N         141.5589  136.5384  156.1943 N.ar    1  UNL1       -0.2236
@<TRIPOS>BOND
     1     9    10    1
     2    10    11    1
     3    10     1    1
     4     1     2   ar
     5     2     3   ar
     6     3     4   ar
     7     4    12    1
     8    12    13    2
     9    13    14    1
    10    14    15   ar
    11    15    16   ar
    12    16    17   ar
    13    17    18   ar
    14    18    19   ar
    15     4     5   ar
    16     5     6    1
    17     5     7   ar
    18     7     1   ar
    19    19    14   ar
    20     6     8    1
