@<TRIPOS>MOLECULE
*****
 37 40 0 0 0
SMALL
GASTEIGER

@<TRIPOS>ATOM
      1 N         140.7003  140.2373  164.2137 N.ar    1  UNL1       -0.1967
      2 N         140.9488  141.4556  165.0528 N.ar    1  UNL1       -0.1666
      3 C         140.1542  141.3173  166.3175 C.ar    1  UNL1        0.0850
      4 C         139.4146  140.0135  166.2601 C.ar    1  UNL1        0.0334
      5 C         138.4775  139.3479  167.2238 C.ar    1  UNL1        0.0027
      6 C         137.8780  138.0148  166.8872 C.ar    1  UNL1        0.0001
      7 C         138.2155  137.3473  165.5870 C.ar    1  UNL1        0.0015
      8 C         139.1526  138.0129  164.6234 C.ar    1  UNL1        0.0193
      9 C         139.7522  139.3460  164.9599 C.ar    1  UNL1        0.0870
     10 C         142.4858  139.4026  160.1683 C.ar    1  UNL1        0.1194
     11 C         143.2234  139.0008  161.4110 C.ar    1  UNL1        0.1452
     12 N         144.5562  138.3208  161.3053 N.pl3   1  UNL1       -0.3415
     13 N         142.6282  139.2791  162.7595 N.ar    1  UNL1       -0.1940
     14 C         141.2955  139.9590  162.8653 C.ar    1  UNL1        0.2554
     15 N         140.5578  140.3608  161.6224 N.ar    1  UNL1       -0.1940
     16 C         141.1530  140.0826  160.2740 C.ar    1  UNL1        0.1452
     17 N         140.4153  140.4844  159.0313 N.pl3   1  UNL1       -0.3415
     18 H         144.9469  138.1382  160.4203 H       1  UNL1        0.1438
     19 H         145.0404  138.0571  162.1210 H       1  UNL1        0.1438
     20 H         139.5405  140.9307  159.1007 H       1  UNL1        0.1438
     21 H         140.8059  140.3018  158.1462 H       1  UNL1        0.1438
     22 C         144.0012  140.1246  158.1854 C.2     1  UNL1        0.4090
     23 O         144.3264  141.4031  158.8994 O.2     1  UNL1       -0.2258
     24 N         143.0810  139.1243  158.8198 N.am    1  UNL1       -0.2181
     25 C         142.7558  137.8458  158.1058 C.3     1  UNL1        0.1237
     26 C         145.2469  140.9534  156.0613 C.3     1  UNL1        0.2574
     27 O         144.5965  139.8464  156.8369 O.3     1  UNL1       -0.4302
     28 C         140.1073  142.3087  167.4422 C.3     1  UNL1        0.0785
     29 C         140.8956  142.0605  168.6941 C.ar    1  UNL1        0.0410
     30 C         140.2032  141.5720  169.9318 C.ar    1  UNL1        0.1388
     31 F         138.7227  141.3316  169.9176 F       1  UNL1       -0.2044
     32 C         140.9914  141.3238  171.1837 C.ar    1  UNL1        0.0318
     33 C         142.4719  141.5642  171.1978 C.ar    1  UNL1        0.0342
     34 C         143.1643  142.0528  169.9600 C.ar    1  UNL1        0.1672
     35 F         144.6448  142.2932  169.9741 F       1  UNL1       -0.2018
     36 C         142.3761  142.3009  168.7082 C.ar    1  UNL1        0.1659
     37 F         143.0684  142.7895  167.4704 F       1  UNL1       -0.2020
@<TRIPOS>BOND
     1    26    27    1
     2    27    22    1
     3    22    23    2
     4    22    24   am
     5    24    25    1
     6    24    10    1
     7    10    11   ar
     8    11    12    1
     9    11    13   ar
    10    13    14   ar
    11    14     1    1
    12     1     2   ar
    13     2     3   ar
    14     3    28    1
    15    28    29    1
    16    29    30   ar
    17    30    31    1
    18    30    32   ar
    19    32    33   ar
    20    33    34   ar
    21    34    35    1
    22    34    36   ar
    23    36    37    1
    24     3     4   ar
    25     4     5   ar
    26     5     6   ar
    27     6     7   ar
    28     7     8   ar
    29     8     9   ar
    30    14    15   ar
    31    15    16   ar
    32    16    17    1
    33    16    10   ar
    34     9     1   ar
    35    36    29   ar
    36     9     4   ar
    37    12    18    1
    38    12    19    1
    39    17    20    1
    40    17    21    1
@<TRIPOS>MOLECULE
*****
 37 40 0 0 0
SMALL
GASTEIGER

@<TRIPOS>ATOM
      1 N         141.1825  143.8565  162.0106 N.ar    1  UNL1       -0.1967
      2 N         142.4602  143.4237  162.6665 N.ar    1  UNL1       -0.1666
      3 C         142.1953  143.2586  164.1336 C.ar    1  UNL1        0.0850
      4 C         140.7539  143.5893  164.3845 C.ar    1  UNL1        0.0334
      5 C         139.9305  143.6017  165.6382 C.ar    1  UNL1        0.0027
      6 C         138.4811  143.9836  165.5798 C.ar    1  UNL1        0.0001
      7 C         137.8552  144.3531  164.2677 C.ar    1  UNL1        0.0015
      8 C         138.6786  144.3407  163.0140 C.ar    1  UNL1        0.0193
      9 C         140.1279  143.9588  163.0724 C.ar    1  UNL1        0.0870
     10 C         140.6130  144.6997  157.6271 C.ar    1  UNL1        0.1194
     11 C         139.6987  143.7418  158.3316 C.ar    1  UNL1        0.1452
     12 N         138.5945  143.0649  157.5749 N.pl3   1  UNL1       -0.3415
     13 N         139.8885  143.4607  159.7928 N.ar    1  UNL1       -0.1940
     14 C         140.9926  144.1375  160.5495 C.ar    1  UNL1        0.2554
     15 N         141.9071  145.0955  159.8450 N.ar    1  UNL1       -0.1940
     16 C         141.7172  145.3766  158.3838 C.ar    1  UNL1        0.1452
     17 N         142.6316  146.3345  157.6794 N.pl3   1  UNL1       -0.3415
     18 H         138.4699  143.2494  156.6159 H       1  UNL1        0.1438
     19 H         137.9943  142.4362  158.0373 H       1  UNL1        0.1438
     20 H         143.3563  146.7788  158.1761 H       1  UNL1        0.1438
     21 H         142.5070  146.5190  156.7204 H       1  UNL1        0.1438
     22 C         139.7418  146.2431  155.7275 C.2     1  UNL1        0.4090
     23 O         139.2503  147.2243  156.7500 O.2     1  UNL1       -0.2258
     24 N         140.4232  144.9808  156.1660 N.am    1  UNL1       -0.2181
     25 C         140.9147  143.9996  155.1434 C.3     1  UNL1        0.1237
     26 C         140.5426  147.3780  153.5318 C.3     1  UNL1        0.2574
     27 O         139.5519  146.5242  154.2663 O.3     1  UNL1       -0.4302
     28 C         143.1961  142.8369  165.1683 C.3     1  UNL1        0.0785
     29 C         143.2351  141.4126  165.6374 C.ar    1  UNL1        0.0410
     30 C         143.8590  140.3557  164.7750 C.ar    1  UNL1        0.1388
     31 F         144.4441  140.7232  163.4435 F       1  UNL1       -0.2044
     32 C         143.8980  138.9315  165.2440 C.ar    1  UNL1        0.0318
     33 C         143.3130  138.5641  166.5754 C.ar    1  UNL1        0.0342
     34 C         142.6890  139.6209  167.4378 C.ar    1  UNL1        0.1672
     35 F         142.1040  139.2536  168.7693 F       1  UNL1       -0.2018
     36 C         142.6500  141.0452  166.9689 C.ar    1  UNL1        0.1659
     37 F         142.0260  142.1020  167.8312 F       1  UNL1       -0.2020
@<TRIPOS>BOND
     1    26    27    1
     2    27    22    1
     3    22    23    2
     4    22    24   am
     5    24    25    1
     6    24    10    1
     7    10    11   ar
     8    11    12    1
     9    11    13   ar
    10    13    14   ar
    11    14     1    1
    12     1     2   ar
    13     2     3   ar
    14     3    28    1
    15    28    29    1
    16    29    30   ar
    17    30    31    1
    18    30    32   ar
    19    32    33   ar
    20    33    34   ar
    21    34    35    1
    22    34    36   ar
    23    36    37    1
    24     3     4   ar
    25     4     5   ar
    26     5     6   ar
    27     6     7   ar
    28     7     8   ar
    29     8     9   ar
    30    14    15   ar
    31    15    16   ar
    32    16    17    1
    33    16    10   ar
    34     9     1   ar
    35    36    29   ar
    36     9     4   ar
    37    12    18    1
    38    12    19    1
    39    17    20    1
    40    17    21    1
@<TRIPOS>MOLECULE
*****
 37 40 0 0 0
SMALL
GASTEIGER

@<TRIPOS>ATOM
      1 N         141.1743  143.8681  162.0379 N.ar    1  UNL1       -0.1967
      2 N         142.4513  143.4315  162.6926 N.ar    1  UNL1       -0.1666
      3 C         142.1875  143.2681  164.1601 C.ar    1  UNL1        0.0850
      4 C         140.7475  143.6038  164.4125 C.ar    1  UNL1        0.0334
      5 C         139.9256  143.6197  165.6671 C.ar    1  UNL1        0.0027
      6 C         138.4775  144.0064  165.6101 C.ar    1  UNL1        0.0001
      7 C         137.8513  144.3773  164.2985 C.ar    1  UNL1        0.0015
      8 C         138.6732  144.3614  163.0439 C.ar    1  UNL1        0.0193
      9 C         140.1213  143.9747  163.1009 C.ar    1  UNL1        0.0870
     10 C         140.6025  144.7108  157.6546 C.ar    1  UNL1        0.1194
     11 C         141.7052  145.3901  158.4114 C.ar    1  UNL1        0.1452
     12 N         142.6173  146.3502  157.7070 N.pl3   1  UNL1       -0.3415
     13 N         141.8958  145.1092  159.8725 N.ar    1  UNL1       -0.1940
     14 C         140.9838  144.1490  160.5768 C.ar    1  UNL1        0.2554
     15 N         139.8810  143.4697  159.8201 N.ar    1  UNL1       -0.1940
     16 C         139.6904  143.7506  158.3590 C.ar    1  UNL1        0.1452
     17 N         138.5878  143.0713  157.6023 N.pl3   1  UNL1       -0.3415
     18 H         142.4922  146.5346  156.7480 H       1  UNL1        0.1438
     19 H         143.3410  146.7961  158.2037 H       1  UNL1        0.1438
     20 H         137.9892  142.4411  158.0646 H       1  UNL1        0.1438
     21 H         138.4626  143.2556  156.6433 H       1  UNL1        0.1438
     22 C         139.7160  146.2462  155.7556 C.2     1  UNL1        0.4090
     23 O         139.2107  147.2198  156.7787 O.2     1  UNL1       -0.2258
     24 N         140.4120  144.9917  156.1935 N.am    1  UNL1       -0.2181
     25 C         140.9173  144.0181  155.1704 C.3     1  UNL1        0.1237
     26 C         140.6103  147.2080  153.5138 C.3     1  UNL1        0.2574
     27 O         139.5254  146.5272  154.2945 O.3     1  UNL1       -0.4302
     28 C         143.1881  142.8435  165.1939 C.3     1  UNL1        0.0785
     29 C         143.2250  141.4186  165.6612 C.ar    1  UNL1        0.0410
     30 C         143.8354  140.3596  164.7917 C.ar    1  UNL1        0.1388
     31 F         144.4089  140.7257  163.4548 F       1  UNL1       -0.2044
     32 C         143.8723  138.9348  165.2590 C.ar    1  UNL1        0.0318
     33 C         143.2988  138.5689  166.5958 C.ar    1  UNL1        0.0342
     34 C         142.6884  139.6278  167.4653 C.ar    1  UNL1        0.1672
     35 F         142.1149  139.2618  168.8022 F       1  UNL1       -0.2018
     36 C         142.6515  141.0526  166.9981 C.ar    1  UNL1        0.1659
     37 F         142.0411  142.1115  167.8676 F       1  UNL1       -0.2020
@<TRIPOS>BOND
     1    26    27    1
     2    27    22    1
     3    22    23    2
     4    22    24   am
     5    24    25    1
     6    24    10    1
     7    10    11   ar
     8    11    12    1
     9    11    13   ar
    10    13    14   ar
    11    14     1    1
    12     1     2   ar
    13     2     3   ar
    14     3    28    1
    15    28    29    1
    16    29    30   ar
    17    30    31    1
    18    30    32   ar
    19    32    33   ar
    20    33    34   ar
    21    34    35    1
    22    34    36   ar
    23    36    37    1
    24     3     4   ar
    25     4     5   ar
    26     5     6   ar
    27     6     7   ar
    28     7     8   ar
    29     8     9   ar
    30    14    15   ar
    31    15    16   ar
    32    16    17    1
    33    16    10   ar
    34     9     1   ar
    35    36    29   ar
    36     9     4   ar
    37    12    18    1
    38    12    19    1
    39    17    20    1
    40    17    21    1
@<TRIPOS>MOLECULE
*****
 37 40 0 0 0
SMALL
GASTEIGER

@<TRIPOS>ATOM
      1 N         140.9491  140.5480  164.0288 N.ar    1  UNL1       -0.1967
      2 N         141.1502  141.7211  164.9419 N.ar    1  UNL1       -0.1666
      3 C         140.3463  141.4833  166.1857 C.ar    1  UNL1        0.0850
      4 C         139.6484  140.1634  166.0415 C.ar    1  UNL1        0.0334
      5 C         138.7218  139.4132  166.9517 C.ar    1  UNL1        0.0027
      6 C         138.1678  138.0850  166.5289 C.ar    1  UNL1        0.0001
      7 C         138.5404  137.5069  165.1959 C.ar    1  UNL1        0.0015
      8 C         139.4670  138.2571  164.2856 C.ar    1  UNL1        0.0193
      9 C         140.0210  139.5854  164.7084 C.ar    1  UNL1        0.0870
     10 C         142.8047  140.0111  159.9645 C.ar    1  UNL1        0.1194
     11 C         141.5762  140.8572  160.1223 C.ar    1  UNL1        0.1452
     12 N         140.9663  141.5244  158.9253 N.pl3   1  UNL1       -0.3415
     13 N         140.9577  141.0362  161.4771 N.ar    1  UNL1       -0.1940
     14 C         141.5676  140.3691  162.6741 C.ar    1  UNL1        0.2554
     15 N         142.7962  139.5229  162.5163 N.ar    1  UNL1       -0.1940
     16 C         143.4147  139.3439  161.1615 C.ar    1  UNL1        0.1452
     17 N         144.6431  138.4978  161.0038 N.pl3   1  UNL1       -0.3415
     18 H         141.3722  141.4069  158.0361 H       1  UNL1        0.1438
     19 H         140.1600  142.0797  159.0288 H       1  UNL1        0.1438
     20 H         145.0434  138.0600  161.7895 H       1  UNL1        0.1438
     21 H         145.0491  138.3803  160.1146 H       1  UNL1        0.1438
     22 C         143.0432  138.6549  157.7614 C.2     1  UNL1        0.4090
     23 O         142.0447  137.6567  158.2678 O.2     1  UNL1       -0.2258
     24 N         143.4232  139.8322  158.6097 N.am    1  UNL1       -0.2181
     25 C         144.4217  140.8304  158.1033 C.3     1  UNL1        0.1237
     26 C         143.6480  137.1283  155.7480 C.3     1  UNL1        0.2574
     27 O         143.6616  138.4759  156.4066 O.3     1  UNL1       -0.4302
     28 C         140.2561  142.4039  167.3666 C.3     1  UNL1        0.0785
     29 C         141.0143  142.0897  168.6222 C.ar    1  UNL1        0.0410
     30 C         140.2941  141.5300  169.8131 C.ar    1  UNL1        0.1388
     31 F         138.8157  141.2846  169.7483 F       1  UNL1       -0.2044
     32 C         141.0522  141.2158  171.0686 C.ar    1  UNL1        0.0318
     33 C         142.5306  141.4612  171.1333 C.ar    1  UNL1        0.0342
     34 C         143.2508  142.0208  169.9425 C.ar    1  UNL1        0.1672
     35 F         144.7291  142.2663  170.0072 F       1  UNL1       -0.2018
     36 C         142.4927  142.3351  168.6869 C.ar    1  UNL1        0.1659
     37 F         143.2129  142.8947  167.4961 F       1  UNL1       -0.2020
@<TRIPOS>BOND
     1    26    27    1
     2    27    22    1
     3    22    23    2
     4    22    24   am
     5    24    25    1
     6    24    10    1
     7    10    11   ar
     8    11    12    1
     9    11    13   ar
    10    13    14   ar
    11    14     1    1
    12     1     2   ar
    13     2     3   ar
    14     3    28    1
    15    28    29    1
    16    29    30   ar
    17    30    31    1
    18    30    32   ar
    19    32    33   ar
    20    33    34   ar
    21    34    35    1
    22    34    36   ar
    23    36    37    1
    24     3     4   ar
    25     4     5   ar
    26     5     6   ar
    27     6     7   ar
    28     7     8   ar
    29     8     9   ar
    30    14    15   ar
    31    15    16   ar
    32    16    17    1
    33    16    10   ar
    34     9     1   ar
    35    36    29   ar
    36     9     4   ar
    37    12    18    1
    38    12    19    1
    39    17    20    1
    40    17    21    1
@<TRIPOS>MOLECULE
*****
 37 40 0 0 0
SMALL
GASTEIGER

@<TRIPOS>ATOM
      1 N         141.0946  143.7703  161.8889 N.ar    1  UNL1       -0.1967
      2 N         140.0039  143.7727  162.9186 N.ar    1  UNL1       -0.1666
      3 C         140.6067  143.3749  164.2333 C.ar    1  UNL1        0.0850
      4 C         142.0700  143.1266  164.0161 C.ar    1  UNL1        0.0334
      5 C         143.1668  142.7096  164.9505 C.ar    1  UNL1        0.0027
      6 C         144.5651  142.5370  164.4359 C.ar    1  UNL1        0.0001
      7 C         144.8667  142.7813  162.9870 C.ar    1  UNL1        0.0015
      8 C         143.7699  143.1983  162.0526 C.ar    1  UNL1        0.0193
      9 C         142.3716  143.3710  162.5672 C.ar    1  UNL1        0.0870
     10 C         140.6197  144.7832  157.5301 C.ar    1  UNL1        0.1194
     11 C         139.6834  143.8079  158.1799 C.ar    1  UNL1        0.1452
     12 N         138.5887  143.1702  157.3767 N.pl3   1  UNL1       -0.3415
     13 N         139.8417  143.4703  159.6328 N.ar    1  UNL1       -0.1940
     14 C         140.9363  144.1079  160.4360 C.ar    1  UNL1        0.2554
     15 N         141.8726  145.0833  159.7862 N.ar    1  UNL1       -0.1940
     16 C         141.7143  145.4209  158.3333 C.ar    1  UNL1        0.1452
     17 N         142.6506  146.3962  157.6837 N.pl3   1  UNL1       -0.3415
     18 H         138.4848  143.3918  156.4231 H       1  UNL1        0.1438
     19 H         137.9742  142.5301  157.8031 H       1  UNL1        0.1438
     20 H         143.3690  146.8147  158.2109 H       1  UNL1        0.1438
     21 H         142.5467  146.6178  156.7301 H       1  UNL1        0.1438
     22 C         139.7433  146.3740  155.6725 C.2     1  UNL1        0.4090
     23 O         139.1837  147.2897  156.7205 O.2     1  UNL1       -0.2258
     24 N         140.4613  145.1208  156.0772 N.am    1  UNL1       -0.2181
     25 C         141.0209  144.2052  155.0292 C.3     1  UNL1        0.1237
     26 C         140.4783  147.7367  153.5860 C.3     1  UNL1        0.2574
     27 O         139.5849  146.7117  154.2195 O.3     1  UNL1       -0.4302
     28 C         139.8748  143.2477  165.5364 C.3     1  UNL1        0.0785
     29 C         139.5148  141.8909  166.0651 C.ar    1  UNL1        0.0410
     30 C         138.5658  141.0158  165.3012 C.ar    1  UNL1        0.1388
     31 F         137.9767  141.4976  164.0085 F       1  UNL1       -0.2044
     32 C         138.2058  139.6590  165.8298 C.ar    1  UNL1        0.0318
     33 C         138.7949  139.1773  167.1224 C.ar    1  UNL1        0.0342
     34 C         139.7440  140.0523  167.8864 C.ar    1  UNL1        0.1672
     35 F         140.3331  139.5706  169.1790 F       1  UNL1       -0.2018
     36 C         140.1039  141.4091  167.3577 C.ar    1  UNL1        0.1659
     37 F         141.0530  142.2842  168.1217 F       1  UNL1       -0.2020
@<TRIPOS>BOND
     1    26    27    1
     2    27    22    1
     3    22    23    2
     4    22    24   am
     5    24    25    1
     6    24    10    1
     7    10    11   ar
     8    11    12    1
     9    11    13   ar
    10    13    14   ar
    11    14     1    1
    12     1     2   ar
    13     2     3   ar
    14     3    28    1
    15    28    29    1
    16    29    30   ar
    17    30    31    1
    18    30    32   ar
    19    32    33   ar
    20    33    34   ar
    21    34    35    1
    22    34    36   ar
    23    36    37    1
    24     3     4   ar
    25     4     5   ar
    26     5     6   ar
    27     6     7   ar
    28     7     8   ar
    29     8     9   ar
    30    14    15   ar
    31    15    16   ar
    32    16    17    1
    33    16    10   ar
    34     9     1   ar
    35    36    29   ar
    36     9     4   ar
    37    12    18    1
    38    12    19    1
    39    17    20    1
    40    17    21    1
@<TRIPOS>MOLECULE
*****
 37 40 0 0 0
SMALL
GASTEIGER

@<TRIPOS>ATOM
      1 N         141.2314  143.8432  162.1984 N.ar    1  UNL1       -0.1967
      2 N         142.5235  143.4217  162.8330 N.ar    1  UNL1       -0.1666
      3 C         142.2858  143.2603  164.3052 C.ar    1  UNL1        0.0850
      4 C         140.8468  143.5820  164.5805 C.ar    1  UNL1        0.0334
      5 C         140.0456  143.5934  165.8485 C.ar    1  UNL1        0.0027
      6 C         138.5928  143.9650  165.8144 C.ar    1  UNL1        0.0001
      7 C         137.9412  144.3253  164.5123 C.ar    1  UNL1        0.0015
      8 C         138.7423  144.3139  163.2442 C.ar    1  UNL1        0.0193
      9 C         140.1951  143.9422  163.2783 C.ar    1  UNL1        0.0870
     10 C         140.5784  144.6659  157.8226 C.ar    1  UNL1        0.1194
     11 C         141.7058  145.3350  158.5515 C.ar    1  UNL1        0.1452
     12 N         142.6155  146.2784  157.8219 N.pl3   1  UNL1       -0.3415
     13 N         141.9234  145.0607  160.0101 N.ar    1  UNL1       -0.1940
     14 C         141.0137  144.1174  160.7398 C.ar    1  UNL1        0.2554
     15 N         139.8863  143.4483  160.0109 N.ar    1  UNL1       -0.1940
     16 C         139.6686  143.7226  158.5523 C.ar    1  UNL1        0.1452
     17 N         138.5412  143.0535  157.8235 N.pl3   1  UNL1       -0.3415
     18 H         142.4726  146.4584  156.8645 H       1  UNL1        0.1438
     19 H         143.3555  146.7175  158.3002 H       1  UNL1        0.1438
     20 H         137.9441  142.4343  158.3025 H       1  UNL1        0.1438
     21 H         138.3983  143.2335  156.8662 H       1  UNL1        0.1438
     22 C         139.7325  146.2311  155.9293 C.2     1  UNL1        0.4090
     23 O         139.3220  147.2476  156.9531 O.2     1  UNL1       -0.2258
     24 N         140.3607  144.9402  156.3641 N.am    1  UNL1       -0.2181
     25 C         140.7712  143.9237  155.3403 C.3     1  UNL1        0.1237
     26 C         139.8556  147.8507  153.9016 C.3     1  UNL1        0.2574
     27 O         139.5148  146.5054  154.4708 O.3     1  UNL1       -0.4302
     28 C         143.3077  142.8493  165.3235 C.3     1  UNL1        0.0785
     29 C         143.1082  141.5955  166.1225 C.ar    1  UNL1        0.0410
     30 C         142.8133  141.6808  167.5908 C.ar    1  UNL1        0.1388
     31 F         142.7178  143.0199  168.2600 F       1  UNL1       -0.2044
     32 C         142.6138  140.4271  168.3898 C.ar    1  UNL1        0.0318
     33 C         142.7093  139.0881  167.7205 C.ar    1  UNL1        0.0342
     34 C         143.0042  139.0028  166.2522 C.ar    1  UNL1        0.1672
     35 F         143.0997  137.6638  165.5829 F       1  UNL1       -0.2018
     36 C         143.2037  140.2565  165.4532 C.ar    1  UNL1        0.1659
     37 F         143.4986  140.1713  163.9850 F       1  UNL1       -0.2020
@<TRIPOS>BOND
     1    26    27    1
     2    27    22    1
     3    22    23    2
     4    22    24   am
     5    24    25    1
     6    24    10    1
     7    10    11   ar
     8    11    12    1
     9    11    13   ar
    10    13    14   ar
    11    14     1    1
    12     1     2   ar
    13     2     3   ar
    14     3    28    1
    15    28    29    1
    16    29    30   ar
    17    30    31    1
    18    30    32   ar
    19    32    33   ar
    20    33    34   ar
    21    34    35    1
    22    34    36   ar
    23    36    37    1
    24     3     4   ar
    25     4     5   ar
    26     5     6   ar
    27     6     7   ar
    28     7     8   ar
    29     8     9   ar
    30    14    15   ar
    31    15    16   ar
    32    16    17    1
    33    16    10   ar
    34     9     1   ar
    35    36    29   ar
    36     9     4   ar
    37    12    18    1
    38    12    19    1
    39    17    20    1
    40    17    21    1
@<TRIPOS>MOLECULE
*****
 37 40 0 0 0
SMALL
GASTEIGER

@<TRIPOS>ATOM
      1 N         141.0389  141.2698  163.1385 N.ar    1  UNL1       -0.1967
      2 N         141.8327  141.5351  164.3833 N.ar    1  UNL1       -0.1666
      3 C         141.5546  140.4270  165.3553 C.ar    1  UNL1        0.0850
      4 C         140.5890  139.4768  164.7112 C.ar    1  UNL1        0.0334
      5 C         139.9587  138.2047  165.1953 C.ar    1  UNL1        0.0027
      6 C         139.0098  137.4534  164.3093 C.ar    1  UNL1        0.0001
      7 C         138.6912  137.9742  162.9392 C.ar    1  UNL1        0.0015
      8 C         139.3214  139.2464  162.4551 C.ar    1  UNL1        0.0193
      9 C         140.2703  139.9977  163.3412 C.ar    1  UNL1        0.0870
     10 C         140.9749  143.8388  159.4444 C.ar    1  UNL1        0.1194
     11 C         140.3141  144.3180  160.7028 C.ar    1  UNL1        0.1452
     12 N         139.6318  145.6536  160.7299 N.pl3   1  UNL1       -0.3415
     13 N         140.3354  143.4617  161.9342 N.ar    1  UNL1       -0.1940
     14 C         141.0176  142.1261  161.9072 C.ar    1  UNL1        0.2554
     15 N         141.6785  141.6469  160.6487 N.ar    1  UNL1       -0.1940
     16 C         141.6571  142.5032  159.4174 C.ar    1  UNL1        0.1452
     17 N         142.3180  142.0239  158.1590 N.pl3   1  UNL1       -0.3415
     18 H         139.6178  146.2157  159.9217 H       1  UNL1        0.1438
     19 H         139.1981  145.9682  161.5558 H       1  UNL1        0.1438
     20 H         142.7658  141.1473  158.1413 H       1  UNL1        0.1438
     21 H         142.3040  142.5859  157.3508 H       1  UNL1        0.1438
     22 C         139.8684  144.5153  157.1933 C.2     1  UNL1        0.4090
     23 O         138.8047  143.4791  157.4047 O.2     1  UNL1       -0.2258
     24 N         140.9536  144.6952  158.2131 N.am    1  UNL1       -0.2181
     25 C         142.0173  145.7314  158.0017 C.3     1  UNL1        0.1237
     26 C         138.5526  145.9517  155.4741 C.3     1  UNL1        0.2574
     27 O         139.8470  145.3716  155.9619 O.3     1  UNL1       -0.4302
     28 C         142.1394  140.2926  166.7301 C.3     1  UNL1        0.0785
     29 C         141.5555  141.0696  167.8728 C.ar    1  UNL1        0.0410
     30 C         142.2777  142.2691  168.4108 C.ar    1  UNL1        0.1388
     31 F         143.5838  142.6918  167.8061 F       1  UNL1       -0.2044
     32 C         141.6939  143.0460  169.5533 C.ar    1  UNL1        0.0318
     33 C         140.3878  142.6233  170.1580 C.ar    1  UNL1        0.0342
     34 C         139.6657  141.4238  169.6200 C.ar    1  UNL1        0.1672
     35 F         138.3596  141.0011  170.2246 F       1  UNL1       -0.2018
     36 C         140.2494  140.6469  168.4774 C.ar    1  UNL1        0.1659
     37 F         139.5272  139.4473  167.9394 F       1  UNL1       -0.2020
@<TRIPOS>BOND
     1    26    27    1
     2    27    22    1
     3    22    23    2
     4    22    24   am
     5    24    25    1
     6    24    10    1
     7    10    11   ar
     8    11    12    1
     9    11    13   ar
    10    13    14   ar
    11    14     1    1
    12     1     2   ar
    13     2     3   ar
    14     3    28    1
    15    28    29    1
    16    29    30   ar
    17    30    31    1
    18    30    32   ar
    19    32    33   ar
    20    33    34   ar
    21    34    35    1
    22    34    36   ar
    23    36    37    1
    24     3     4   ar
    25     4     5   ar
    26     5     6   ar
    27     6     7   ar
    28     7     8   ar
    29     8     9   ar
    30    14    15   ar
    31    15    16   ar
    32    16    17    1
    33    16    10   ar
    34     9     1   ar
    35    36    29   ar
    36     9     4   ar
    37    12    18    1
    38    12    19    1
    39    17    20    1
    40    17    21    1
@<TRIPOS>MOLECULE
*****
 37 40 0 0 0
SMALL
GASTEIGER

@<TRIPOS>ATOM
      1 N         141.2045  141.6928  163.4821 N.ar    1  UNL1       -0.1967
      2 N         142.1171  141.5659  164.6658 N.ar    1  UNL1       -0.1666
      3 C         141.5867  142.4483  165.7566 C.ar    1  UNL1        0.0850
      4 C         140.3463  143.1206  165.2472 C.ar    1  UNL1        0.0334
      5 C         139.4015  144.0976  165.8818 C.ar    1  UNL1        0.0027
      6 C         138.2204  144.6077  165.1105 C.ar    1  UNL1        0.0001
      7 C         137.9842  144.1408  163.7048 C.ar    1  UNL1        0.0015
      8 C         138.9290  143.1638  163.0702 C.ar    1  UNL1        0.0193
      9 C         140.1101  142.6537  163.8414 C.ar    1  UNL1        0.0870
     10 C         141.6682  139.5647  159.5443 C.ar    1  UNL1        0.1194
     11 C         142.7221  140.5274  160.0052 C.ar    1  UNL1        0.1452
     12 N         143.9306  140.7808  159.1536 N.pl3   1  UNL1       -0.3415
     13 N         142.5675  141.2368  161.3178 N.ar    1  UNL1       -0.1940
     14 C         141.3591  140.9835  162.1695 C.ar    1  UNL1        0.2554
     15 N         140.3051  140.0207  161.7086 N.ar    1  UNL1       -0.1940
     16 C         140.4598  139.3113  160.3960 C.ar    1  UNL1        0.1452
     17 N         139.4058  138.3486  159.9351 N.pl3   1  UNL1       -0.3415
     18 H         144.0321  140.3152  158.2921 H       1  UNL1        0.1438
     19 H         144.6223  141.4126  159.4561 H       1  UNL1        0.1438
     20 H         138.6127  138.1824  160.4941 H       1  UNL1        0.1438
     21 H         139.5073  137.8830  159.0736 H       1  UNL1        0.1438
     22 C         142.5403  137.5395  158.1703 C.2     1  UNL1        0.4090
     23 O         143.1032  136.9330  159.4215 O.2     1  UNL1       -0.2258
     24 N         141.8228  138.8553  158.2317 N.am    1  UNL1       -0.2181
     25 C         141.2600  139.4618  156.9806 C.3     1  UNL1        0.1237
     26 C         143.1836  135.4122  156.8244 C.3     1  UNL1        0.2574
     27 O         142.6950  136.8300  156.8578 O.3     1  UNL1       -0.4302
     28 C         142.1907  142.6271  167.1180 C.3     1  UNL1        0.0785
     29 C         141.6342  141.8743  168.2901 C.ar    1  UNL1        0.0410
     30 C         140.5743  142.4991  169.1481 C.ar    1  UNL1        0.1388
     31 F         140.0708  143.8768  168.8339 F       1  UNL1       -0.2044
     32 C         140.0178  141.7464  170.3202 C.ar    1  UNL1        0.0318
     33 C         140.5213  140.3688  170.6342 C.ar    1  UNL1        0.0342
     34 C         141.5812  139.7439  169.7763 C.ar    1  UNL1        0.1672
     35 F         142.0847  138.3663  170.0903 F       1  UNL1       -0.2018
     36 C         142.1377  140.4966  168.6042 C.ar    1  UNL1        0.1659
     37 F         143.1976  139.8718  167.7462 F       1  UNL1       -0.2020
@<TRIPOS>BOND
     1    26    27    1
     2    27    22    1
     3    22    23    2
     4    22    24   am
     5    24    25    1
     6    24    10    1
     7    10    11   ar
     8    11    12    1
     9    11    13   ar
    10    13    14   ar
    11    14     1    1
    12     1     2   ar
    13     2     3   ar
    14     3    28    1
    15    28    29    1
    16    29    30   ar
    17    30    31    1
    18    30    32   ar
    19    32    33   ar
    20    33    34   ar
    21    34    35    1
    22    34    36   ar
    23    36    37    1
    24     3     4   ar
    25     4     5   ar
    26     5     6   ar
    27     6     7   ar
    28     7     8   ar
    29     8     9   ar
    30    14    15   ar
    31    15    16   ar
    32    16    17    1
    33    16    10   ar
    34     9     1   ar
    35    36    29   ar
    36     9     4   ar
    37    12    18    1
    38    12    19    1
    39    17    20    1
    40    17    21    1
@<TRIPOS>MOLECULE
*****
 37 40 0 0 0
SMALL
GASTEIGER

@<TRIPOS>ATOM
      1 N         141.1455  141.5113  163.2680 N.ar    1  UNL1       -0.1967
      2 N         142.0454  141.3671  164.4594 N.ar    1  UNL1       -0.1666
      3 C         141.5206  142.2570  165.5469 C.ar    1  UNL1        0.0850
      4 C         140.2965  142.9511  165.0277 C.ar    1  UNL1        0.0334
      5 C         139.3630  143.9433  165.6555 C.ar    1  UNL1        0.0027
      6 C         138.1976  144.4746  164.8747 C.ar    1  UNL1        0.0001
      7 C         137.9658  144.0138  163.4662 C.ar    1  UNL1        0.0015
      8 C         138.8993  143.0216  162.8385 C.ar    1  UNL1        0.0193
      9 C         140.0647  142.4903  163.6192 C.ar    1  UNL1        0.0870
     10 C         141.6074  139.3810  159.3311 C.ar    1  UNL1        0.1194
     11 C         140.9815  140.7433  159.3778 C.ar    1  UNL1        0.1452
     12 N         140.5096  141.3956  158.1122 N.pl3   1  UNL1       -0.3415
     13 N         140.8276  141.4534  160.6901 N.ar    1  UNL1       -0.1940
     14 C         141.2995  140.8012  161.9557 C.ar    1  UNL1        0.2554
     15 N         141.9254  139.4388  161.9090 N.ar    1  UNL1       -0.1940
     16 C         142.0794  138.7287  160.5968 C.ar    1  UNL1        0.1452
     17 N         142.7053  137.3664  160.5502 N.pl3   1  UNL1       -0.3415
     18 H         140.6107  140.9295  157.2509 H       1  UNL1        0.1438
     19 H         140.0988  142.2898  158.1428 H       1  UNL1        0.1438
     20 H         143.0150  136.9383  161.3809 H       1  UNL1        0.1438
     21 H         142.8064  136.9003  159.6889 H       1  UNL1        0.1438
     22 C         143.0358  138.8041  157.2391 C.2     1  UNL1        0.4090
     23 O         144.1562  139.6474  157.7715 O.2     1  UNL1       -0.2258
     24 N         141.7614  138.6709  158.0189 N.am    1  UNL1       -0.2181
     25 C         140.6410  137.8276  157.4864 C.3     1  UNL1        0.1237
     26 C         143.8233  136.7352  155.8790 C.3     1  UNL1        0.2574
     27 O         143.1899  138.0941  155.9268 O.3     1  UNL1       -0.4302
     28 C         142.1156  142.4234  166.9138 C.3     1  UNL1        0.0785
     29 C         141.4801  141.7522  168.0953 C.ar    1  UNL1        0.0410
     30 C         141.8325  140.3334  168.4311 C.ar    1  UNL1        0.1388
     31 F         142.8204  139.5858  167.5854 F       1  UNL1       -0.2044
     32 C         141.1971  139.6622  169.6124 C.ar    1  UNL1        0.0318
     33 C         140.2091  140.4099  170.4580 C.ar    1  UNL1        0.0342
     34 C         139.8567  141.8287  170.1222 C.ar    1  UNL1        0.1672
     35 F         138.8688  142.5763  170.9678 F       1  UNL1       -0.2018
     36 C         140.4921  142.4999  168.9409 C.ar    1  UNL1        0.1659
     37 F         140.1397  143.9187  168.6051 F       1  UNL1       -0.2020
@<TRIPOS>BOND
     1    26    27    1
     2    27    22    1
     3    22    23    2
     4    22    24   am
     5    24    25    1
     6    24    10    1
     7    10    11   ar
     8    11    12    1
     9    11    13   ar
    10    13    14   ar
    11    14     1    1
    12     1     2   ar
    13     2     3   ar
    14     3    28    1
    15    28    29    1
    16    29    30   ar
    17    30    31    1
    18    30    32   ar
    19    32    33   ar
    20    33    34   ar
    21    34    35    1
    22    34    36   ar
    23    36    37    1
    24     3     4   ar
    25     4     5   ar
    26     5     6   ar
    27     6     7   ar
    28     7     8   ar
    29     8     9   ar
    30    14    15   ar
    31    15    16   ar
    32    16    17    1
    33    16    10   ar
    34     9     1   ar
    35    36    29   ar
    36     9     4   ar
    37    12    18    1
    38    12    19    1
    39    17    20    1
    40    17    21    1
