@<TRIPOS>MOLECULE
*****
 32 35 0 0 0
SMALL
GASTEIGER

@<TRIPOS>ATOM
      1 N         142.1395  138.5391  157.8708 N.pl3   1  UNL1       -0.2091
      2 H         142.2614  139.4147  157.4376 H       1  UNL1        0.1739
      3 C         140.7482  137.3000  156.0599 C.ar    1  UNL1        0.2400
      4 N         140.4951  136.0793  155.2259 N.ar    1  UNL1       -0.2091
      5 C         141.3804  134.8768  155.3685 C.ar    1  UNL1        0.1018
      6 C         142.5186  134.8950  156.3452 C.ar    1  UNL1        0.0165
      7 C         142.7716  136.1158  157.1793 C.ar    1  UNL1        0.0218
      8 C         141.8864  137.3183  157.0366 C.ar    1  UNL1        0.1179
      9 C         143.4038  133.6925  156.4879 C.2     1  UNL1       -0.0200
     10 C         143.4831  132.6839  155.3804 C.2     1  UNL1        0.0015
     11 C         144.3683  131.4814  155.5231 C.3     1  UNL1        0.1680
     12 O         145.1743  131.2875  156.7732 O.3     1  UNL1       -0.3487
     13 C         145.0950  132.2961  157.8806 C.3     1  UNL1        0.1473
     14 C         144.2098  133.4986  157.7379 C.3     1  UNL1        0.0582
     15 C         138.7157  138.4790  154.9512 C.3     1  UNL1        0.2543
     16 O         139.8629  138.5025  155.9173 O.3     1  UNL1       -0.4553
     17 S         142.2067  138.4257  159.3650 S.O2    1  UNL1        0.0919
     18 O         143.6876  138.6589  159.3161 O.2     1  UNL1       -0.1484
     19 O         140.7257  138.1925  159.4139 O.2     1  UNL1       -0.1484
     20 C         142.2739  138.3123  160.8592 C.ar    1  UNL1        0.2244
     21 C         143.3307  138.9072  161.7419 C.ar    1  UNL1        0.1173
     22 N         143.0061  138.5468  163.1613 N.ar    1  UNL1       -0.3083
     23 C         141.7486  137.7290  163.1558 C.ar    1  UNL1        0.1226
     24 C         141.0638  137.1567  164.3614 C.3     1  UNL1        0.0719
     25 N         141.2961  137.5842  161.7331 N.ar    1  UNL1       -0.2113
     26 C         143.7996  138.9357  164.3733 C.3     1  UNL1        0.1340
     27 C         143.9805  140.3843  164.7181 C.ar    1  UNL1        0.0004
     28 C         143.1156  141.0196  165.7660 C.ar    1  UNL1       -0.0024
     29 C         143.2966  142.4682  166.1107 C.ar    1  UNL1       -0.0003
     30 C         144.3424  143.2815  165.4075 C.ar    1  UNL1       -0.0000
     31 C         145.2074  142.6463  164.3594 C.ar    1  UNL1       -0.0003
     32 C         145.0264  141.1976  164.0148 C.ar    1  UNL1       -0.0024
@<TRIPOS>BOND
     1    15    16    1
     2    16     3    1
     3     3     4   ar
     4     4     5   ar
     5     5     6   ar
     6     6     9    1
     7     9    10    2
     8    10    11    1
     9    11    12    1
    10    12    13    1
    11    13    14    1
    12     6     7   ar
    13     7     8   ar
    14     8     1    1
    15     1    17    1
    16    17    18    2
    17    17    19    2
    18    17    20    1
    19    20    21   ar
    20    21    22   ar
    21    22    26    1
    22    26    27    1
    23    27    28   ar
    24    28    29   ar
    25    29    30   ar
    26    30    31   ar
    27    31    32   ar
    28    22    23   ar
    29    23    24    1
    30    23    25   ar
    31     8     3   ar
    32    25    20   ar
    33    14     9    1
    34    32    27   ar
    35     1     2    1
@<TRIPOS>MOLECULE
*****
 32 35 0 0 0
SMALL
GASTEIGER

@<TRIPOS>ATOM
      1 N         142.0827  138.9592  158.2008 N.pl3   1  UNL1       -0.2091
      2 H         141.5386  139.7023  157.8529 H       1  UNL1        0.1739
      3 C         143.7651  138.6699  156.2423 C.ar    1  UNL1        0.2400
      4 N         144.5151  137.7815  155.2946 N.ar    1  UNL1       -0.2091
      5 C         144.3326  136.2940  155.3576 C.ar    1  UNL1        0.1018
      6 C         143.4001  135.6949  156.3683 C.ar    1  UNL1        0.0165
      7 C         142.6502  136.5833  157.3160 C.ar    1  UNL1        0.0218
      8 C         142.8327  138.0708  157.2530 C.ar    1  UNL1        0.1179
      9 C         143.2176  134.2073  156.4312 C.2     1  UNL1       -0.0200
     10 C         142.1047  133.5552  155.6657 C.2     1  UNL1        0.0015
     11 C         141.9222  132.0677  155.7287 C.3     1  UNL1        0.1680
     12 O         142.8526  131.2323  156.5571 O.3     1  UNL1       -0.3487
     13 C         143.9655  131.8844  157.3227 C.3     1  UNL1        0.1473
     14 C         144.1480  133.3720  157.2597 C.3     1  UNL1        0.0582
     15 C         145.1507  140.7928  156.8107 C.3     1  UNL1        0.2543
     16 O         143.9476  140.1574  156.1794 O.3     1  UNL1       -0.4553
     17 S         142.1617  138.7155  159.6788 S.O2    1  UNL1        0.0919
     18 O         143.6442  138.9404  159.6366 O.2     1  UNL1       -0.1484
     19 O         140.6793  138.4906  159.7210 O.2     1  UNL1       -0.1484
     20 C         142.2408  138.4718  161.1568 C.ar    1  UNL1        0.2244
     21 C         143.3101  138.9794  162.0781 C.ar    1  UNL1        0.1173
     22 N         142.9946  138.4990  163.4637 N.ar    1  UNL1       -0.3083
     23 C         141.7303  137.6944  163.3986 C.ar    1  UNL1        0.1226
     24 C         141.0511  137.0243  164.5560 C.3     1  UNL1        0.0719
     25 N         141.2644  137.6776  161.9729 N.ar    1  UNL1       -0.2113
     26 C         143.8017  138.7748  164.6976 C.3     1  UNL1        0.1340
     27 C         143.3016  139.7546  165.7173 C.ar    1  UNL1        0.0004
     28 C         143.2776  141.2205  165.4003 C.ar    1  UNL1       -0.0024
     29 C         142.7775  142.2003  166.4200 C.ar    1  UNL1       -0.0003
     30 C         142.3015  141.7142  167.7568 C.ar    1  UNL1       -0.0000
     31 C         142.3255  140.2483  168.0739 C.ar    1  UNL1       -0.0003
     32 C         142.8256  139.2685  167.0541 C.ar    1  UNL1       -0.0024
@<TRIPOS>BOND
     1    15    16    1
     2    16     3    1
     3     3     4   ar
     4     4     5   ar
     5     5     6   ar
     6     6     9    1
     7     9    10    2
     8    10    11    1
     9    11    12    1
    10    12    13    1
    11    13    14    1
    12     6     7   ar
    13     7     8   ar
    14     8     1    1
    15     1    17    1
    16    17    18    2
    17    17    19    2
    18    17    20    1
    19    20    21   ar
    20    21    22   ar
    21    22    26    1
    22    26    27    1
    23    27    28   ar
    24    28    29   ar
    25    29    30   ar
    26    30    31   ar
    27    31    32   ar
    28    22    23   ar
    29    23    24    1
    30    23    25   ar
    31     8     3   ar
    32    25    20   ar
    33    14     9    1
    34    32    27   ar
    35     1     2    1
@<TRIPOS>MOLECULE
*****
 32 35 0 0 0
SMALL
GASTEIGER

@<TRIPOS>ATOM
      1 N         142.1948  139.2330  158.2845 N.pl3   1  UNL1       -0.2091
      2 H         141.4987  139.8528  157.9673 H       1  UNL1        0.1739
      3 C         143.8341  138.9143  156.2941 C.ar    1  UNL1        0.2400
      4 N         144.5368  138.0144  155.3214 N.ar    1  UNL1       -0.2091
      5 C         144.3032  136.5334  155.3662 C.ar    1  UNL1        0.1018
      6 C         143.3668  135.9522  156.3837 C.ar    1  UNL1        0.0165
      7 C         142.6640  136.8521  157.3564 C.ar    1  UNL1        0.0218
      8 C         142.8977  138.3331  157.3116 C.ar    1  UNL1        0.1179
      9 C         143.1332  134.4712  156.4284 C.2     1  UNL1       -0.0200
     10 C         142.0233  133.8624  155.6239 C.2     1  UNL1        0.0015
     11 C         141.7896  132.3814  155.6687 C.3     1  UNL1        0.1680
     12 O         142.6659  131.5092  156.5180 O.3     1  UNL1       -0.3487
     13 C         143.7758  132.1180  157.3225 C.3     1  UNL1        0.1473
     14 C         144.0095  133.5991  157.2778 C.3     1  UNL1        0.0582
     15 C         145.4281  140.9495  156.5528 C.3     1  UNL1        0.2543
     16 O         144.0677  140.3953  156.2494 O.3     1  UNL1       -0.4553
     17 S         142.5526  139.1886  159.7405 S.O2    1  UNL1        0.0919
     18 O         141.0987  139.0847  160.0946 O.2     1  UNL1       -0.1484
     19 O         144.0065  139.2925  159.3864 O.2     1  UNL1       -0.1484
     20 C         142.9104  139.1441  161.1965 C.ar    1  UNL1        0.2244
     21 C         142.1237  138.4639  162.2774 C.ar    1  UNL1        0.1173
     22 N         142.8448  138.6715  163.5762 N.ar    1  UNL1       -0.3083
     23 C         144.0772  139.4800  163.2981 C.ar    1  UNL1        0.1226
     24 C         145.0911  139.9193  164.3125 C.3     1  UNL1        0.0719
     25 N         144.1177  139.7721  161.8273 N.ar    1  UNL1       -0.2113
     26 C         142.4098  138.1602  164.9177 C.3     1  UNL1        0.1340
     27 C         141.0329  138.4681  165.4271 C.ar    1  UNL1        0.0004
     28 C         140.8199  139.6199  166.3638 C.ar    1  UNL1       -0.0024
     29 C         139.4430  139.9277  166.8732 C.ar    1  UNL1       -0.0003
     30 C         138.2791  139.0835  166.4457 C.ar    1  UNL1       -0.0000
     31 C         138.4921  137.9316  165.5089 C.ar    1  UNL1       -0.0003
     32 C         139.8691  137.6238  164.9995 C.ar    1  UNL1       -0.0024
@<TRIPOS>BOND
     1    15    16    1
     2    16     3    1
     3     3     4   ar
     4     4     5   ar
     5     5     6   ar
     6     6     9    1
     7     9    10    2
     8    10    11    1
     9    11    12    1
    10    12    13    1
    11    13    14    1
    12     6     7   ar
    13     7     8   ar
    14     8     1    1
    15     1    17    1
    16    17    18    2
    17    17    19    2
    18    17    20    1
    19    20    21   ar
    20    21    22   ar
    21    22    26    1
    22    26    27    1
    23    27    28   ar
    24    28    29   ar
    25    29    30   ar
    26    30    31   ar
    27    31    32   ar
    28    22    23   ar
    29    23    24    1
    30    23    25   ar
    31     8     3   ar
    32    25    20   ar
    33    14     9    1
    34    32    27   ar
    35     1     2    1
@<TRIPOS>MOLECULE
*****
 32 35 0 0 0
SMALL
GASTEIGER

@<TRIPOS>ATOM
      1 N         141.2225  139.1178  157.8899 N.pl3   1  UNL1       -0.2091
      2 H         140.8030  139.8838  157.4356 H       1  UNL1        0.1739
      3 C         143.3996  138.8184  156.5039 C.ar    1  UNL1        0.2400
      4 N         144.3523  137.9332  155.7567 N.ar    1  UNL1       -0.2091
      5 C         144.0810  136.4619  155.6482 C.ar    1  UNL1        0.1018
      6 C         142.8568  135.8759  156.2869 C.ar    1  UNL1        0.0165
      7 C         141.9040  136.7612  157.0341 C.ar    1  UNL1        0.0218
      8 C         142.1754  138.2325  157.1426 C.ar    1  UNL1        0.1179
      9 C         142.5854  134.4047  156.1784 C.2     1  UNL1       -0.0200
     10 C         141.5816  133.8984  155.1854 C.2     1  UNL1        0.0015
     11 C         141.3102  132.4272  155.0769 C.3     1  UNL1        0.1680
     12 O         142.0427  131.4622  155.9614 O.3     1  UNL1       -0.3487
     13 C         143.0464  131.9685  156.9544 C.3     1  UNL1        0.1473
     14 C         143.3178  133.4397  157.0629 C.3     1  UNL1        0.0582
     15 C         145.0535  140.7758  156.9320 C.3     1  UNL1        0.2543
     16 O         143.6709  140.2897  156.6124 O.3     1  UNL1       -0.4553
     17 S         140.9089  138.8359  159.3294 S.O2    1  UNL1        0.0919
     18 O         139.5178  138.4262  158.9461 O.2     1  UNL1       -0.1484
     19 O         142.3000  139.2455  159.7128 O.2     1  UNL1       -0.1484
     20 C         140.5953  138.5540  160.7689 C.ar    1  UNL1        0.2244
     21 C         139.4629  139.1436  161.5565 C.ar    1  UNL1        0.1173
     22 N         139.5267  138.5870  162.9479 N.ar    1  UNL1       -0.3083
     23 C         140.6985  137.6534  163.0204 C.ar    1  UNL1        0.1226
     24 C         141.1336  136.8765  164.2275 C.3     1  UNL1        0.0719
     25 N         141.3589  137.6330  161.6737 N.ar    1  UNL1       -0.2113
     26 C         138.5842  138.9077  164.0699 C.3     1  UNL1        0.1340
     27 C         139.0784  139.6520  165.2748 C.ar    1  UNL1        0.0004
     28 C         138.7804  139.1342  166.6506 C.ar    1  UNL1       -0.0024
     29 C         139.2746  139.8785  167.8555 C.ar    1  UNL1       -0.0003
     30 C         140.0668  141.1407  167.6845 C.ar    1  UNL1       -0.0000
     31 C         140.3648  141.6586  166.3087 C.ar    1  UNL1       -0.0003
     32 C         139.8706  140.9142  165.1038 C.ar    1  UNL1       -0.0024
@<TRIPOS>BOND
     1    15    16    1
     2    16     3    1
     3     3     4   ar
     4     4     5   ar
     5     5     6   ar
     6     6     9    1
     7     9    10    2
     8    10    11    1
     9    11    12    1
    10    12    13    1
    11    13    14    1
    12     6     7   ar
    13     7     8   ar
    14     8     1    1
    15     1    17    1
    16    17    18    2
    17    17    19    2
    18    17    20    1
    19    20    21   ar
    20    21    22   ar
    21    22    26    1
    22    26    27    1
    23    27    28   ar
    24    28    29   ar
    25    29    30   ar
    26    30    31   ar
    27    31    32   ar
    28    22    23   ar
    29    23    24    1
    30    23    25   ar
    31     8     3   ar
    32    25    20   ar
    33    14     9    1
    34    32    27   ar
    35     1     2    1
@<TRIPOS>MOLECULE
*****
 32 35 0 0 0
SMALL
GASTEIGER

@<TRIPOS>ATOM
      1 N         141.6456  145.4145  159.7510 N.pl3   1  UNL1       -0.2091
      2 H         142.1332  146.2559  159.5980 H       1  UNL1        0.1739
      3 C         140.5513  144.9648  157.4379 C.ar    1  UNL1        0.2400
      4 N         140.2731  144.0398  156.2903 N.ar    1  UNL1       -0.2091
      5 C         140.8110  142.6397  156.3080 C.ar    1  UNL1        0.1018
      6 C         141.6270  142.1645  157.4734 C.ar    1  UNL1        0.0165
      7 C         141.9052  143.0894  158.6210 C.ar    1  UNL1        0.0218
      8 C         141.3673  144.4895  158.6033 C.ar    1  UNL1        0.1179
      9 C         142.1649  140.7644  157.4911 C.2     1  UNL1       -0.0200
     10 C         142.9044  140.2299  156.3006 C.2     1  UNL1        0.0015
     11 C         143.4423  138.8297  156.3183 C.3     1  UNL1        0.1680
     12 O         143.2407  137.9641  157.5266 O.3     1  UNL1       -0.3487
     13 C         142.5012  138.4986  158.7172 C.3     1  UNL1        0.1473
     14 C         141.9633  139.8987  158.6994 C.3     1  UNL1        0.0582
     15 C         139.3563  146.9003  156.1826 C.3     1  UNL1        0.2543
     16 O         140.0134  146.3649  157.4202 O.3     1  UNL1       -0.4553
     17 S         141.1809  145.0573  161.1317 S.O2    1  UNL1        0.0919
     18 O         139.7868  145.4776  160.7712 O.2     1  UNL1       -0.1484
     19 O         142.5749  144.6370  161.4922 O.2     1  UNL1       -0.1484
     20 C         140.7161  144.7001  162.5125 C.ar    1  UNL1        0.2244
     21 C         141.3414  143.6797  163.4168 C.ar    1  UNL1        0.1173
     22 N         140.5562  143.6495  164.6945 N.ar    1  UNL1       -0.3083
     23 C         139.4457  144.6513  164.5799 C.ar    1  UNL1        0.1226
     24 C         138.4169  144.9511  165.6295 C.3     1  UNL1        0.0719
     25 N         139.5445  145.3005  163.2313 N.ar    1  UNL1       -0.2113
     26 C         140.8331  142.7717  165.8789 C.3     1  UNL1        0.1340
     27 C         139.9767  141.5673  166.1362 C.ar    1  UNL1        0.0004
     28 C         140.0150  140.8919  167.4749 C.ar    1  UNL1       -0.0024
     29 C         139.1586  139.6876  167.7321 C.ar    1  UNL1       -0.0003
     30 C         138.2639  139.1587  166.6506 C.ar    1  UNL1       -0.0000
     31 C         138.2255  139.8341  165.3118 C.ar    1  UNL1       -0.0003
     32 C         139.0820  141.0385  165.0546 C.ar    1  UNL1       -0.0024
@<TRIPOS>BOND
     1    15    16    1
     2    16     3    1
     3     3     4   ar
     4     4     5   ar
     5     5     6   ar
     6     6     9    1
     7     9    10    2
     8    10    11    1
     9    11    12    1
    10    12    13    1
    11    13    14    1
    12     6     7   ar
    13     7     8   ar
    14     8     1    1
    15     1    17    1
    16    17    18    2
    17    17    19    2
    18    17    20    1
    19    20    21   ar
    20    21    22   ar
    21    22    26    1
    22    26    27    1
    23    27    28   ar
    24    28    29   ar
    25    29    30   ar
    26    30    31   ar
    27    31    32   ar
    28    22    23   ar
    29    23    24    1
    30    23    25   ar
    31     8     3   ar
    32    25    20   ar
    33    14     9    1
    34    32    27   ar
    35     1     2    1
@<TRIPOS>MOLECULE
*****
 32 35 0 0 0
SMALL
GASTEIGER

@<TRIPOS>ATOM
      1 N         140.9259  144.7475  158.6984 N.pl3   1  UNL1       -0.2091
      2 H         141.9064  144.7423  158.6102 H       1  UNL1        0.1739
      3 C         139.2423  144.0459  156.8482 C.ar    1  UNL1        0.2400
      4 N         138.3851  144.4007  155.6696 N.ar    1  UNL1       -0.2091
      5 C         138.3543  145.8120  155.1624 C.ar    1  UNL1        0.1018
      6 C         139.1807  146.8685  155.8339 C.ar    1  UNL1        0.0165
      7 C         140.0378  146.5136  157.0125 C.ar    1  UNL1        0.0218
      8 C         140.0686  145.1023  157.5197 C.ar    1  UNL1        0.1179
      9 C         139.1498  148.2798  155.3267 C.2     1  UNL1       -0.0200
     10 C         138.5047  149.3575  156.1466 C.2     1  UNL1        0.0015
     11 C         138.4739  150.7688  155.6395 C.3     1  UNL1        0.1680
     12 O         139.0882  151.1025  154.3124 O.3     1  UNL1       -0.3487
     13 C         139.7333  150.0248  153.4924 C.3     1  UNL1        0.1473
     14 C         139.7642  148.6135  153.9996 C.3     1  UNL1        0.0582
     15 C         138.3125  141.6202  156.8092 C.3     1  UNL1        0.2543
     16 O         139.2731  142.6345  157.3554 O.3     1  UNL1       -0.4553
     17 S         140.2891  144.4006  160.0115 S.O2    1  UNL1        0.0919
     18 O         140.8960  143.0305  159.9438 O.2     1  UNL1       -0.1484
     19 O         139.6823  145.7707  160.0792 O.2     1  UNL1       -0.1484
     20 C         139.6524  144.0537  161.3246 C.ar    1  UNL1        0.2244
     21 C         138.7825  142.8621  161.5951 C.ar    1  UNL1        0.1173
     22 N         138.3662  142.9094  163.0354 N.ar    1  UNL1       -0.3083
     23 C         138.9788  144.1304  163.6551 C.ar    1  UNL1        0.1226
     24 C         138.8238  144.5674  165.0816 C.3     1  UNL1        0.0719
     25 N         139.7738  144.8375  162.5977 N.ar    1  UNL1       -0.2113
     26 C         137.4909  141.9111  163.7335 C.3     1  UNL1        0.1340
     27 C         138.0025  140.5281  164.0085 C.ar    1  UNL1        0.0004
     28 C         138.1854  139.5578  162.8795 C.ar    1  UNL1       -0.0024
     29 C         138.6970  138.1748  163.1546 C.ar    1  UNL1       -0.0003
     30 C         139.0257  137.7622  164.5587 C.ar    1  UNL1       -0.0000
     31 C         138.8428  138.7326  165.6878 C.ar    1  UNL1       -0.0003
     32 C         138.3312  140.1156  165.4127 C.ar    1  UNL1       -0.0024
@<TRIPOS>BOND
     1    15    16    1
     2    16     3    1
     3     3     4   ar
     4     4     5   ar
     5     5     6   ar
     6     6     9    1
     7     9    10    2
     8    10    11    1
     9    11    12    1
    10    12    13    1
    11    13    14    1
    12     6     7   ar
    13     7     8   ar
    14     8     1    1
    15     1    17    1
    16    17    18    2
    17    17    19    2
    18    17    20    1
    19    20    21   ar
    20    21    22   ar
    21    22    26    1
    22    26    27    1
    23    27    28   ar
    24    28    29   ar
    25    29    30   ar
    26    30    31   ar
    27    31    32   ar
    28    22    23   ar
    29    23    24    1
    30    23    25   ar
    31     8     3   ar
    32    25    20   ar
    33    14     9    1
    34    32    27   ar
    35     1     2    1
@<TRIPOS>MOLECULE
*****
 32 35 0 0 0
SMALL
GASTEIGER

@<TRIPOS>ATOM
      1 N         142.5776  138.8147  157.7789 N.pl3   1  UNL1       -0.2091
      2 H         142.7311  139.6750  157.3256 H       1  UNL1        0.1739
      3 C         141.0600  137.6491  156.0216 C.ar    1  UNL1        0.2400
      4 N         140.6966  136.4338  155.2210 N.ar    1  UNL1       -0.2091
      5 C         141.4874  135.1687  155.3772 C.ar    1  UNL1        0.1018
      6 C         142.6416  135.1190  156.3339 C.ar    1  UNL1        0.0165
      7 C         143.0050  136.3344  157.1344 C.ar    1  UNL1        0.0218
      8 C         142.2142  137.5994  156.9783 C.ar    1  UNL1        0.1179
      9 C         143.4324  133.8540  156.4900 C.2     1  UNL1       -0.0200
     10 C         143.4538  132.8415  155.3836 C.2     1  UNL1        0.0015
     11 C         144.2446  131.5765  155.5398 C.3     1  UNL1        0.1680
     12 O         145.0140  131.3240  156.8023 O.3     1  UNL1       -0.3487
     13 C         144.9927  132.3366  157.9088 C.3     1  UNL1        0.1473
     14 C         144.2019  133.6016  157.7526 C.3     1  UNL1        0.0582
     15 C         139.1187  139.1977  156.7851 C.3     1  UNL1        0.2543
     16 O         140.2692  138.9141  155.8654 O.3     1  UNL1       -0.4553
     17 S         142.7072  138.7192  159.2702 S.O2    1  UNL1        0.0919
     18 O         144.1301  139.1845  159.1764 O.2     1  UNL1       -0.1484
     19 O         141.2843  138.2538  159.3641 O.2     1  UNL1       -0.1484
     20 C         142.8368  138.6236  160.7616 C.ar    1  UNL1        0.2244
     21 C         141.9290  137.8584  161.6783 C.ar    1  UNL1        0.1173
     22 N         142.4281  138.0384  163.0813 N.ar    1  UNL1       -0.3083
     23 C         143.6444  138.9149  163.0317 C.ar    1  UNL1        0.1226
     24 C         144.4642  139.3528  164.2091 C.3     1  UNL1        0.0719
     25 N         143.8970  139.2766  161.5981 N.ar    1  UNL1       -0.2113
     26 C         141.8180  137.4459  164.3169 C.3     1  UNL1        0.1340
     27 C         140.7597  138.1999  165.0662 C.ar    1  UNL1        0.0004
     28 C         139.3506  137.6866  165.0939 C.ar    1  UNL1       -0.0024
     29 C         138.2923  138.4406  165.8432 C.ar    1  UNL1       -0.0003
     30 C         138.6431  139.7079  166.5648 C.ar    1  UNL1       -0.0000
     31 C         140.0522  140.2213  166.5372 C.ar    1  UNL1       -0.0003
     32 C         141.1106  139.4672  165.7878 C.ar    1  UNL1       -0.0024
@<TRIPOS>BOND
     1    15    16    1
     2    16     3    1
     3     3     4   ar
     4     4     5   ar
     5     5     6   ar
     6     6     9    1
     7     9    10    2
     8    10    11    1
     9    11    12    1
    10    12    13    1
    11    13    14    1
    12     6     7   ar
    13     7     8   ar
    14     8     1    1
    15     1    17    1
    16    17    18    2
    17    17    19    2
    18    17    20    1
    19    20    21   ar
    20    21    22   ar
    21    22    26    1
    22    26    27    1
    23    27    28   ar
    24    28    29   ar
    25    29    30   ar
    26    30    31   ar
    27    31    32   ar
    28    22    23   ar
    29    23    24    1
    30    23    25   ar
    31     8     3   ar
    32    25    20   ar
    33    14     9    1
    34    32    27   ar
    35     1     2    1
@<TRIPOS>MOLECULE
*****
 32 35 0 0 0
SMALL
GASTEIGER

@<TRIPOS>ATOM
      1 N         143.1045  138.3147  157.7523 N.pl3   1  UNL1       -0.2091
      2 H         143.6422  139.1156  157.5557 H       1  UNL1        0.1739
      3 C         142.6805  137.4884  155.3259 C.ar    1  UNL1        0.2400
      4 N         142.6075  136.3705  154.3284 N.ar    1  UNL1       -0.2091
      5 C         142.8855  134.9610  154.7599 C.ar    1  UNL1        0.1018
      6 C         143.2366  134.6694  156.1887 C.ar    1  UNL1        0.0165
      7 C         143.3096  135.7873  157.1862 C.ar    1  UNL1        0.0218
      8 C         143.0315  137.1968  156.7548 C.ar    1  UNL1        0.1179
      9 C         143.5147  133.2600  156.6201 C.2     1  UNL1       -0.0200
     10 C         142.6337  132.1427  156.1453 C.2     1  UNL1        0.0015
     11 C         142.9118  130.7332  156.5767 C.3     1  UNL1        0.1680
     12 O         144.0708  130.4411  157.4829 O.3     1  UNL1       -0.3487
     13 C         144.9518  131.5584  157.9577 C.3     1  UNL1        0.1473
     14 C         144.6737  132.9678  157.5263 C.3     1  UNL1        0.0582
     15 C         140.9881  139.3891  154.8036 C.3     1  UNL1        0.2543
     16 O         142.4024  138.8978  154.8945 O.3     1  UNL1       -0.4553
     17 S         142.3582  138.2123  159.0494 S.O2    1  UNL1        0.0919
     18 O         143.6568  138.2474  159.7994 O.2     1  UNL1       -0.1484
     19 O         141.0596  138.1772  158.2995 O.2     1  UNL1       -0.1484
     20 C         141.6119  138.1099  160.3466 C.ar    1  UNL1        0.2244
     21 C         140.2265  138.6213  160.6095 C.ar    1  UNL1        0.1173
     22 N         139.8784  138.3056  162.0339 N.ar    1  UNL1       -0.3083
     23 C         141.0486  137.5990  162.6514 C.ar    1  UNL1        0.1226
     24 C         141.1327  137.1009  164.0638 C.3     1  UNL1        0.0719
     25 N         142.1200  137.4781  161.6086 N.ar    1  UNL1       -0.2113
     26 C         138.5867  138.6381  162.7203 C.3     1  UNL1        0.1340
     27 C         138.3934  139.9903  163.3403 C.ar    1  UNL1        0.0004
     28 C         139.0468  140.3149  164.6509 C.ar    1  UNL1       -0.0024
     29 C         138.8535  141.6670  165.2708 C.ar    1  UNL1       -0.0003
     30 C         138.0067  142.6945  164.5802 C.ar    1  UNL1       -0.0000
     31 C         137.3532  142.3700  163.2696 C.ar    1  UNL1       -0.0003
     32 C         137.5466  141.0178  162.6496 C.ar    1  UNL1       -0.0024
@<TRIPOS>BOND
     1    15    16    1
     2    16     3    1
     3     3     4   ar
     4     4     5   ar
     5     5     6   ar
     6     6     9    1
     7     9    10    2
     8    10    11    1
     9    11    12    1
    10    12    13    1
    11    13    14    1
    12     6     7   ar
    13     7     8   ar
    14     8     1    1
    15     1    17    1
    16    17    18    2
    17    17    19    2
    18    17    20    1
    19    20    21   ar
    20    21    22   ar
    21    22    26    1
    22    26    27    1
    23    27    28   ar
    24    28    29   ar
    25    29    30   ar
    26    30    31   ar
    27    31    32   ar
    28    22    23   ar
    29    23    24    1
    30    23    25   ar
    31     8     3   ar
    32    25    20   ar
    33    14     9    1
    34    32    27   ar
    35     1     2    1
@<TRIPOS>MOLECULE
*****
 32 35 0 0 0
SMALL
GASTEIGER

@<TRIPOS>ATOM
      1 N         141.6152  145.5595  159.6097 N.pl3   1  UNL1       -0.2091
      2 H         142.1673  146.3439  159.8312 H       1  UNL1        0.1739
      3 C         140.8597  145.4775  157.1252 C.ar    1  UNL1        0.2400
      4 N         140.9464  144.8605  155.7608 N.ar    1  UNL1       -0.2091
      5 C         141.8754  143.7084  155.5163 C.ar    1  UNL1        0.1018
      6 C         142.7176  143.1733  156.6363 C.ar    1  UNL1        0.0165
      7 C         142.6308  143.7904  158.0007 C.ar    1  UNL1        0.0218
      8 C         141.7019  144.9425  158.2452 C.ar    1  UNL1        0.1179
      9 C         143.6465  142.0212  156.3918 C.2     1  UNL1       -0.0200
     10 C         145.1179  142.2649  156.2327 C.2     1  UNL1        0.0015
     11 C         146.0469  141.1128  155.9882 C.3     1  UNL1        0.1680
     12 O         145.5043  139.7170  155.9029 O.3     1  UNL1       -0.3487
     13 C         144.0329  139.4733  156.0621 C.3     1  UNL1        0.1473
     14 C         143.1039  140.6254  156.3065 C.3     1  UNL1        0.0582
     15 C         139.1984  147.2591  156.2219 C.3     1  UNL1        0.2543
     16 O         139.9308  146.6296  157.3696 O.3     1  UNL1       -0.4553
     17 S         140.6872  144.9813  160.6366 S.O2    1  UNL1        0.0919
     18 O         141.6926  143.9111  160.9426 O.2     1  UNL1       -0.1484
     19 O         139.6818  146.0516  160.3306 O.2     1  UNL1       -0.1484
     20 C         139.7592  144.4032  161.6636 C.ar    1  UNL1        0.2244
     21 C         139.0126  143.1074  161.5472 C.ar    1  UNL1        0.1173
     22 N         138.2069  142.9227  162.7989 N.ar    1  UNL1       -0.3083
     23 C         138.4555  144.1043  163.6888 C.ar    1  UNL1        0.1226
     24 C         137.8510  144.3311  165.0427 C.3     1  UNL1        0.0719
     25 N         139.4149  145.0193  162.9871 N.ar    1  UNL1       -0.2113
     26 C         137.3100  141.7604  163.1066 C.3     1  UNL1        0.1340
     27 C         137.8971  140.4680  163.5917 C.ar    1  UNL1        0.0004
     28 C         138.1759  140.2724  165.0524 C.ar    1  UNL1       -0.0024
     29 C         138.7629  138.9800  165.5374 C.ar    1  UNL1       -0.0003
     30 C         139.0711  137.8833  164.5617 C.ar    1  UNL1       -0.0000
     31 C         138.7923  138.0789  163.1008 C.ar    1  UNL1       -0.0003
     32 C         138.2052  139.3713  162.6159 C.ar    1  UNL1       -0.0024
@<TRIPOS>BOND
     1    15    16    1
     2    16     3    1
     3     3     4   ar
     4     4     5   ar
     5     5     6   ar
     6     6     9    1
     7     9    10    2
     8    10    11    1
     9    11    12    1
    10    12    13    1
    11    13    14    1
    12     6     7   ar
    13     7     8   ar
    14     8     1    1
    15     1    17    1
    16    17    18    2
    17    17    19    2
    18    17    20    1
    19    20    21   ar
    20    21    22   ar
    21    22    26    1
    22    26    27    1
    23    27    28   ar
    24    28    29   ar
    25    29    30   ar
    26    30    31   ar
    27    31    32   ar
    28    22    23   ar
    29    23    24    1
    30    23    25   ar
    31     8     3   ar
    32    25    20   ar
    33    14     9    1
    34    32    27   ar
    35     1     2    1
