@<TRIPOS>MOLECULE
*****
 29 32 0 0 0
SMALL
GASTEIGER

@<TRIPOS>ATOM
      1 C         144.0850  138.6056  160.8604 C.3     1  UNL1        0.1366
      2 N         143.8312  139.7876  161.7483 N.ar    1  UNL1       -0.2630
      3 C         143.8619  141.2277  161.3295 C.ar    1  UNL1        0.3331
      4 O         144.1518  141.7385  159.9492 O.2     1  UNL1       -0.2462
      5 N         143.5518  142.0671  162.5332 N.ar    1  UNL1       -0.2694
      6 C         143.3295  141.1460  163.6960 C.ar    1  UNL1        0.0986
      7 C         142.9921  141.4080  165.1339 C.ar    1  UNL1        0.0219
      8 C         142.8274  140.2612  166.0866 C.ar    1  UNL1        0.0207
      9 C         143.0001  138.8524  165.6014 C.ar    1  UNL1        0.1006
     10 N         143.3374  138.5903  164.1635 N.ar    1  UNL1       -0.2251
     11 C         143.5022  139.7371  163.2109 C.ar    1  UNL1        0.1633
     12 C         142.4900  140.5232  167.5245 C.ar    1  UNL1        0.0015
     13 C         142.6244  139.4259  168.5383 C.ar    1  UNL1        0.0000
     14 C         142.2871  139.6879  169.9762 C.ar    1  UNL1       -0.0001
     15 C         141.8152  141.0471  170.4003 C.ar    1  UNL1        0.0039
     16 C         141.6808  142.1444  169.3865 C.ar    1  UNL1        0.0714
     17 C         142.0182  141.8824  167.9485 C.ar    1  UNL1        0.0039
     18 C         141.2089  143.5037  169.8105 C.3     1  UNL1        0.4186
     19 F         140.7371  144.8629  170.2345 F       1  UNL1       -0.1659
     20 F         139.8904  143.2552  169.1399 F       1  UNL1       -0.1659
     21 F         142.5274  143.7521  170.4811 F       1  UNL1       -0.1659
     22 C         143.4772  143.5649  162.5682 C.3     1  UNL1        0.1956
     23 C         142.2468  144.2662  162.0738 C.2     1  UNL1        0.2490
     24 O         142.1639  144.7185  160.6460 O.2     1  UNL1       -0.2728
     25 N         141.0993  144.5153  163.0072 N.am    1  UNL1       -0.2722
     26 C         139.7519  145.1624  162.8825 C.3     1  UNL1        0.1305
     27 C         139.4766  144.8675  164.3273 C.3     1  UNL1        0.2003
     28 F         138.3292  145.1166  165.2607 F       1  UNL1       -0.2336
     29 C         140.8241  144.2205  164.4520 C.3     1  UNL1        0.1305
@<TRIPOS>BOND
     1     1     2    1
     2     2     3   ar
     3     3     4    2
     4     3     5   ar
     5     5    22    1
     6    22    23    1
     7    23    24    2
     8    23    25   am
     9    25    26    1
    10    26    27    1
    11    27    28    1
    12    27    29    1
    13     5     6   ar
    14     6     7   ar
    15     7     8   ar
    16     8    12    1
    17    12    13   ar
    18    13    14   ar
    19    14    15   ar
    20    15    16   ar
    21    16    18    1
    22    18    19    1
    23    18    20    1
    24    18    21    1
    25    16    17   ar
    26     8     9   ar
    27     9    10   ar
    28    10    11   ar
    29    11     2   ar
    30    29    25    1
    31    11     6   ar
    32    17    12   ar
@<TRIPOS>MOLECULE
*****
 29 32 0 0 0
SMALL
GASTEIGER

@<TRIPOS>ATOM
      1 C         142.4239  137.6321  161.1416 C.3     1  UNL1        0.1366
      2 N         141.5165  138.3056  162.1281 N.ar    1  UNL1       -0.2630
      3 C         140.0928  138.7094  161.8834 C.ar    1  UNL1        0.3331
      4 O         139.3264  138.5106  160.6093 O.2     1  UNL1       -0.2462
      5 N         139.5699  139.3469  163.1364 N.ar    1  UNL1       -0.2694
      6 C         140.6705  139.3372  164.1556 C.ar    1  UNL1        0.0986
      7 C         140.7327  139.8311  165.5705 C.ar    1  UNL1        0.0219
      8 C         141.9978  139.6815  166.3622 C.ar    1  UNL1        0.0207
      9 C         143.2009  139.0379  165.7390 C.ar    1  UNL1        0.1006
     10 N         143.1388  138.5440  164.3240 N.ar    1  UNL1       -0.2251
     11 C         141.8736  138.6936  163.5323 C.ar    1  UNL1        0.1633
     12 C         142.0600  140.1755  167.7772 C.ar    1  UNL1        0.0015
     13 C         142.5899  139.2833  168.8604 C.ar    1  UNL1        0.0000
     14 C         142.6521  139.7772  170.2754 C.ar    1  UNL1       -0.0001
     15 C         142.1844  141.1634  170.6072 C.ar    1  UNL1        0.0039
     16 C         141.6545  142.0555  169.5240 C.ar    1  UNL1        0.0714
     17 C         141.5923  141.5615  168.1090 C.ar    1  UNL1        0.0039
     18 C         141.1868  143.4415  169.8558 C.3     1  UNL1        0.4186
     19 F         140.7191  144.8276  170.1875 F       1  UNL1       -0.1659
     20 F         139.8209  143.1052  169.3351 F       1  UNL1       -0.1659
     21 F         142.5527  143.7778  170.3764 F       1  UNL1       -0.1659
     22 C         138.1889  139.8976  163.3355 C.3     1  UNL1        0.1956
     23 C         137.8290  141.2412  162.7738 C.2     1  UNL1        0.2490
     24 O         137.3075  141.3527  161.3718 O.2     1  UNL1       -0.2728
     25 N         137.9907  142.4731  163.6141 N.am    1  UNL1       -0.2722
     26 C         137.7452  143.9382  163.4066 C.3     1  UNL1        0.1305
     27 C         138.2193  144.2154  164.8025 C.3     1  UNL1        0.2003
     28 F         138.3810  145.4473  165.6427 F       1  UNL1       -0.2336
     29 C         138.4648  142.7503  165.0100 C.3     1  UNL1        0.1305
@<TRIPOS>BOND
     1     1     2    1
     2     2     3   ar
     3     3     4    2
     4     3     5   ar
     5     5    22    1
     6    22    23    1
     7    23    24    2
     8    23    25   am
     9    25    26    1
    10    26    27    1
    11    27    28    1
    12    27    29    1
    13     5     6   ar
    14     6     7   ar
    15     7     8   ar
    16     8    12    1
    17    12    13   ar
    18    13    14   ar
    19    14    15   ar
    20    15    16   ar
    21    16    18    1
    22    18    19    1
    23    18    20    1
    24    18    21    1
    25    16    17   ar
    26     8     9   ar
    27     9    10   ar
    28    10    11   ar
    29    11     2   ar
    30    29    25    1
    31    11     6   ar
    32    17    12   ar
@<TRIPOS>MOLECULE
*****
 29 32 0 0 0
SMALL
GASTEIGER

@<TRIPOS>ATOM
      1 C         144.9876  142.5162  160.9335 C.3     1  UNL1        0.1366
      2 N         144.3453  141.5728  161.9068 N.ar    1  UNL1       -0.2630
      3 C         143.9509  140.1525  161.6287 C.ar    1  UNL1        0.3331
      4 O         144.1295  139.4263  160.3284 O.2     1  UNL1       -0.2462
      5 N         143.3464  139.5860  162.8792 N.ar    1  UNL1       -0.2694
      6 C         143.3673  140.6561  163.9301 C.ar    1  UNL1        0.0986
      7 C         142.9039  140.6711  165.3566 C.ar    1  UNL1        0.0219
      8 C         143.0578  141.9139  166.1822 C.ar    1  UNL1        0.0207
      9 C         143.6752  143.1418  165.5812 C.ar    1  UNL1        0.1006
     10 N         144.1385  143.1269  164.1547 N.ar    1  UNL1       -0.2251
     11 C         143.9846  141.8840  163.3291 C.ar    1  UNL1        0.1633
     12 C         142.5944  141.9289  167.6088 C.ar    1  UNL1        0.0015
     13 C         143.4970  142.4552  168.6850 C.ar    1  UNL1        0.0000
     14 C         143.0337  142.4702  170.1116 C.ar    1  UNL1       -0.0001
     15 C         141.6677  141.9589  170.4619 C.ar    1  UNL1        0.0039
     16 C         140.7651  141.4326  169.3857 C.ar    1  UNL1        0.0714
     17 C         141.2285  141.4176  167.9591 C.ar    1  UNL1        0.0039
     18 C         139.3992  140.9213  169.7360 C.3     1  UNL1        0.4186
     19 F         138.0332  140.4100  170.0863 F       1  UNL1       -0.1659
     20 F         139.6488  139.6915  168.9142 F       1  UNL1       -0.1659
     21 F         139.1496  142.1511  170.5577 F       1  UNL1       -0.1659
     22 C         142.8145  138.1938  163.0489 C.3     1  UNL1        0.1956
     23 C         141.3869  137.8890  162.7034 C.2     1  UNL1        0.2490
     24 O         141.0215  137.4979  161.3022 O.2     1  UNL1       -0.2728
     25 N         140.3249  137.9753  163.7592 N.am    1  UNL1       -0.2722
     26 C         138.8420  137.7523  163.7925 C.3     1  UNL1        0.1305
     27 C         138.8229  138.0974  165.2522 C.3     1  UNL1        0.2003
     28 F         137.7609  138.1838  166.3079 F       1  UNL1       -0.2336
     29 C         140.3059  138.3205  165.2188 C.3     1  UNL1        0.1305
@<TRIPOS>BOND
     1     1     2    1
     2     2     3   ar
     3     3     4    2
     4     3     5   ar
     5     5    22    1
     6    22    23    1
     7    23    24    2
     8    23    25   am
     9    25    26    1
    10    26    27    1
    11    27    28    1
    12    27    29    1
    13     5     6   ar
    14     6     7   ar
    15     7     8   ar
    16     8    12    1
    17    12    13   ar
    18    13    14   ar
    19    14    15   ar
    20    15    16   ar
    21    16    18    1
    22    18    19    1
    23    18    20    1
    24    18    21    1
    25    16    17   ar
    26     8     9   ar
    27     9    10   ar
    28    10    11   ar
    29    11     2   ar
    30    29    25    1
    31    11     6   ar
    32    17    12   ar
@<TRIPOS>MOLECULE
*****
 29 32 0 0 0
SMALL
GASTEIGER

@<TRIPOS>ATOM
      1 C         137.5270  139.8489  161.1637 C.3     1  UNL1        0.1366
      2 N         138.0986  140.8683  162.1039 N.ar    1  UNL1       -0.2630
      3 C         138.3572  142.3117  161.7883 C.ar    1  UNL1        0.3331
      4 O         138.0895  142.9892  160.4770 O.2     1  UNL1       -0.2462
      5 N         138.9305  142.9587  163.0141 N.ar    1  UNL1       -0.2694
      6 C         139.0262  141.9152  164.0874 C.ar    1  UNL1        0.0986
      7 C         139.5151  141.9745  165.5042 C.ar    1  UNL1        0.0219
      8 C         139.4899  140.7418  166.3585 C.ar    1  UNL1        0.0207
      9 C         138.9757  139.4498  165.7959 C.ar    1  UNL1        0.1006
     10 N         138.4869  139.3905  164.3791 N.ar    1  UNL1       -0.2251
     11 C         138.5121  140.6232  163.5248 C.ar    1  UNL1        0.1633
     12 C         139.9787  140.8010  167.7754 C.ar    1  UNL1        0.0015
     13 C         139.1825  140.1565  168.8711 C.ar    1  UNL1        0.0000
     14 C         139.6713  140.2157  170.2879 C.ar    1  UNL1       -0.0001
     15 C         140.9565  140.9195  170.6091 C.ar    1  UNL1        0.0039
     16 C         141.7528  141.5640  169.5134 C.ar    1  UNL1        0.0714
     17 C         141.2639  141.5047  168.0965 C.ar    1  UNL1        0.0039
     18 C         143.0379  142.2677  169.8346 C.3     1  UNL1        0.4186
     19 F         144.3230  142.9714  170.1557 F       1  UNL1       -0.1659
     20 F         142.5520  142.5175  171.2315 F       1  UNL1       -0.1659
     21 F         143.5237  142.0180  168.4376 F       1  UNL1       -0.1659
     22 C         139.3367  144.3968  163.1440 C.3     1  UNL1        0.1956
     23 C         140.6535  144.8570  162.5921 C.2     1  UNL1        0.2490
     24 O         140.6977  145.6473  161.3180 O.2     1  UNL1       -0.2728
     25 N         141.9260  144.5268  163.3144 N.am    1  UNL1       -0.2722
     26 C         143.3813  144.8038  163.0796 C.3     1  UNL1        0.1305
     27 C         143.7256  144.0598  164.3359 C.3     1  UNL1        0.2003
     28 F         144.9980  143.7296  165.0581 F       1  UNL1       -0.2336
     29 C         142.2702  143.7828  164.5706 C.3     1  UNL1        0.1305
@<TRIPOS>BOND
     1     1     2    1
     2     2     3   ar
     3     3     4    2
     4     3     5   ar
     5     5    22    1
     6    22    23    1
     7    23    24    2
     8    23    25   am
     9    25    26    1
    10    26    27    1
    11    27    28    1
    12    27    29    1
    13     5     6   ar
    14     6     7   ar
    15     7     8   ar
    16     8    12    1
    17    12    13   ar
    18    13    14   ar
    19    14    15   ar
    20    15    16   ar
    21    16    18    1
    22    18    19    1
    23    18    20    1
    24    18    21    1
    25    16    17   ar
    26     8     9   ar
    27     9    10   ar
    28    10    11   ar
    29    11     2   ar
    30    29    25    1
    31    11     6   ar
    32    17    12   ar
@<TRIPOS>MOLECULE
*****
 29 32 0 0 0
SMALL
GASTEIGER

@<TRIPOS>ATOM
      1 C         141.2969  144.9276  159.9590 C.3     1  UNL1        0.1366
      2 N         140.5890  144.0380  160.9376 N.ar    1  UNL1       -0.2630
      3 C         139.3263  143.2710  160.6783 C.ar    1  UNL1        0.3331
      4 O         138.5497  143.2589  159.3950 O.2     1  UNL1       -0.2462
      5 N         138.9765  142.5181  161.9277 N.ar    1  UNL1       -0.2694
      6 C         140.0230  142.8199  162.9590 C.ar    1  UNL1        0.0986
      7 C         140.1973  142.3606  164.3763 C.ar    1  UNL1        0.0219
      8 C         141.3681  142.8407  165.1817 C.ar    1  UNL1        0.0207
      9 C         142.3647  143.7801  164.5697 C.ar    1  UNL1        0.1006
     10 N         142.1905  144.2393  163.1525 N.ar    1  UNL1       -0.2251
     11 C         141.0196  143.7592  162.3471 C.ar    1  UNL1        0.1633
     12 C         141.5424  142.3815  166.5990 C.ar    1  UNL1        0.0015
     13 C         142.8918  142.4533  167.2501 C.ar    1  UNL1        0.0000
     14 C         143.0661  141.9941  168.6674 C.ar    1  UNL1       -0.0001
     15 C         141.8910  141.4631  169.4337 C.ar    1  UNL1        0.0039
     16 C         140.5415  141.3913  168.7826 C.ar    1  UNL1        0.0714
     17 C         140.3672  141.8506  167.3652 C.ar    1  UNL1        0.0039
     18 C         139.3664  140.8604  169.5488 C.3     1  UNL1        0.4186
     19 F         138.1913  140.3294  170.3150 F       1  UNL1       -0.1659
     20 F         139.4291  139.5853  168.7613 F       1  UNL1       -0.1659
     21 F         139.3037  142.1354  170.3363 F       1  UNL1       -0.1659
     22 C         137.7887  141.6211  162.1131 C.3     1  UNL1        0.1956
     23 C         137.8884  140.1641  161.7702 C.2     1  UNL1        0.2490
     24 O         137.5416  139.6934  160.3888 O.2     1  UNL1       -0.2728
     25 N         138.3348  139.1780  162.8086 N.am    1  UNL1       -0.2722
     26 C         138.5495  137.6938  162.8388 C.3     1  UNL1        0.1305
     27 C         138.9661  137.7834  164.2771 C.3     1  UNL1        0.2003
     28 F         139.4125  136.7974  165.3154 F       1  UNL1       -0.2336
     29 C         138.7513  139.2677  164.2468 C.3     1  UNL1        0.1305
@<TRIPOS>BOND
     1     1     2    1
     2     2     3   ar
     3     3     4    2
     4     3     5   ar
     5     5    22    1
     6    22    23    1
     7    23    24    2
     8    23    25   am
     9    25    26    1
    10    26    27    1
    11    27    28    1
    12    27    29    1
    13     5     6   ar
    14     6     7   ar
    15     7     8   ar
    16     8    12    1
    17    12    13   ar
    18    13    14   ar
    19    14    15   ar
    20    15    16   ar
    21    16    18    1
    22    18    19    1
    23    18    20    1
    24    18    21    1
    25    16    17   ar
    26     8     9   ar
    27     9    10   ar
    28    10    11   ar
    29    11     2   ar
    30    29    25    1
    31    11     6   ar
    32    17    12   ar
@<TRIPOS>MOLECULE
*****
 29 32 0 0 0
SMALL
GASTEIGER

@<TRIPOS>ATOM
      1 C         144.1372  142.4939  160.0091 C.3     1  UNL1        0.1366
      2 N         143.1946  141.8121  160.9560 N.ar    1  UNL1       -0.2630
      3 C         141.9439  141.0757  160.5774 C.ar    1  UNL1        0.3331
      4 O         141.4161  140.8918  159.1854 O.2     1  UNL1       -0.2462
      5 N         141.3135  140.5556  161.8352 N.ar    1  UNL1       -0.2694
      6 C         142.1747  140.9705  162.9912 C.ar    1  UNL1        0.0986
      7 C         142.0504  140.7415  164.4684 C.ar    1  UNL1        0.0219
      8 C         143.0887  141.2891  165.4021 C.ar    1  UNL1        0.0207
      9 C         144.2513  142.0657  164.8588 C.ar    1  UNL1        0.1006
     10 N         144.3756  142.2947  163.3816 N.ar    1  UNL1       -0.2251
     11 C         143.3373  141.7471  162.4478 C.ar    1  UNL1        0.1633
     12 C         142.9645  141.0601  166.8794 C.ar    1  UNL1        0.0015
     13 C         142.5389  139.7181  167.3971 C.ar    1  UNL1        0.0000
     14 C         142.4147  139.4891  168.8743 C.ar    1  UNL1       -0.0001
     15 C         142.7160  140.6020  169.8338 C.ar    1  UNL1        0.0039
     16 C         143.1416  141.9440  169.3161 C.ar    1  UNL1        0.0714
     17 C         143.2658  142.1730  167.8388 C.ar    1  UNL1        0.0039
     18 C         143.4429  143.0569  170.2755 C.3     1  UNL1        0.4186
     19 F         143.7442  144.1698  171.2350 F       1  UNL1       -0.1659
     20 F         144.9062  142.7402  170.1834 F       1  UNL1       -0.1659
     21 F         141.9797  143.3736  170.3677 F       1  UNL1       -0.1659
     22 C         140.0448  139.7601  161.9219 C.3     1  UNL1        0.1956
     23 C         139.9741  138.5556  162.8132 C.2     1  UNL1        0.2490
     24 O         140.6732  137.2885  162.4185 O.2     1  UNL1       -0.2728
     25 N         139.2043  138.6182  164.0991 N.am    1  UNL1       -0.2722
     26 C         138.9167  137.6534  165.2110 C.3     1  UNL1        0.1305
     27 C         138.1157  138.7067  165.9176 C.3     1  UNL1        0.2003
     28 F         137.3460  138.7693  167.2034 F       1  UNL1       -0.2336
     29 C         138.4035  139.6715  164.8056 C.3     1  UNL1        0.1305
@<TRIPOS>BOND
     1     1     2    1
     2     2     3   ar
     3     3     4    2
     4     3     5   ar
     5     5    22    1
     6    22    23    1
     7    23    24    2
     8    23    25   am
     9    25    26    1
    10    26    27    1
    11    27    28    1
    12    27    29    1
    13     5     6   ar
    14     6     7   ar
    15     7     8   ar
    16     8    12    1
    17    12    13   ar
    18    13    14   ar
    19    14    15   ar
    20    15    16   ar
    21    16    18    1
    22    18    19    1
    23    18    20    1
    24    18    21    1
    25    16    17   ar
    26     8     9   ar
    27     9    10   ar
    28    10    11   ar
    29    11     2   ar
    30    29    25    1
    31    11     6   ar
    32    17    12   ar
@<TRIPOS>MOLECULE
*****
 29 32 0 0 0
SMALL
GASTEIGER

@<TRIPOS>ATOM
      1 C         143.7248  139.4751  160.1798 C.3     1  UNL1        0.1366
      2 N         142.5147  139.7883  161.0090 N.ar    1  UNL1       -0.2630
      3 C         141.1728  140.2085  160.4868 C.ar    1  UNL1        0.3331
      4 O         140.8054  140.3893  159.0437 O.2     1  UNL1       -0.2462
      5 N         140.2628  140.4161  161.6610 N.ar    1  UNL1       -0.2694
      6 C         141.0422  140.1242  162.9089 C.ar    1  UNL1        0.0986
      7 C         140.6645  140.1616  164.3600 C.ar    1  UNL1        0.0219
      8 C         141.6786  139.8110  165.4082 C.ar    1  UNL1        0.0207
      9 C         143.0703  139.4230  165.0052 C.ar    1  UNL1        0.1006
     10 N         143.4481  139.3856  163.5541 N.ar    1  UNL1       -0.2251
     11 C         142.4340  139.7362  162.5059 C.ar    1  UNL1        0.1633
     12 C         141.3009  139.8484  166.8594 C.ar    1  UNL1        0.0015
     13 C         139.8856  140.1444  167.2587 C.ar    1  UNL1        0.0000
     14 C         139.5078  140.1818  168.7098 C.ar    1  UNL1       -0.0001
     15 C         140.5454  139.9232  169.7618 C.ar    1  UNL1        0.0039
     16 C         141.9607  139.6272  169.3626 C.ar    1  UNL1        0.0714
     17 C         142.3384  139.5898  167.9113 C.ar    1  UNL1        0.0039
     18 C         142.9982  139.3686  170.4145 C.3     1  UNL1        0.4186
     19 F         144.0358  139.1100  171.4664 F       1  UNL1       -0.1659
     20 F         142.7161  137.8977  170.3313 F       1  UNL1       -0.1659
     21 F         143.2804  140.8394  170.4977 F       1  UNL1       -0.1659
     22 C         138.8256  140.8410  161.5983 C.3     1  UNL1        0.1956
     23 C         138.4775  142.2967  161.4981 C.2     1  UNL1        0.2490
     24 O         138.3091  142.9366  160.1520 O.2     1  UNL1       -0.2728
     25 N         138.2979  143.1124  162.7441 N.am    1  UNL1       -0.2722
     26 C         137.9601  144.5446  163.0346 C.3     1  UNL1        0.1305
     27 C         138.0439  144.2659  164.5061 C.3     1  UNL1        0.2003
     28 F         137.8643  145.0816  165.7520 F       1  UNL1       -0.2336
     29 C         138.3818  142.8336  164.2156 C.3     1  UNL1        0.1305
@<TRIPOS>BOND
     1     1     2    1
     2     2     3   ar
     3     3     4    2
     4     3     5   ar
     5     5    22    1
     6    22    23    1
     7    23    24    2
     8    23    25   am
     9    25    26    1
    10    26    27    1
    11    27    28    1
    12    27    29    1
    13     5     6   ar
    14     6     7   ar
    15     7     8   ar
    16     8    12    1
    17    12    13   ar
    18    13    14   ar
    19    14    15   ar
    20    15    16   ar
    21    16    18    1
    22    18    19    1
    23    18    20    1
    24    18    21    1
    25    16    17   ar
    26     8     9   ar
    27     9    10   ar
    28    10    11   ar
    29    11     2   ar
    30    29    25    1
    31    11     6   ar
    32    17    12   ar
@<TRIPOS>MOLECULE
*****
 29 32 0 0 0
SMALL
GASTEIGER

@<TRIPOS>ATOM
      1 C         139.6067  146.3768  161.6469 C.3     1  UNL1        0.1366
      2 N         140.5291  145.2614  162.0408 N.ar    1  UNL1       -0.2630
      3 C         141.6489  144.7084  161.2100 C.ar    1  UNL1        0.3331
      4 O         142.0431  145.1737  159.8396 O.2     1  UNL1       -0.2462
      5 N         142.3054  143.6085  161.9904 N.ar    1  UNL1       -0.2694
      6 C         141.5913  143.4816  163.3034 C.ar    1  UNL1        0.0986
      7 C         141.7990  142.5679  164.4747 C.ar    1  UNL1        0.0219
      8 C         140.9087  142.6757  165.6771 C.ar    1  UNL1        0.0207
      9 C         139.8108  143.6973  165.7082 C.ar    1  UNL1        0.1006
     10 N         139.6032  144.6111  164.5369 N.ar    1  UNL1       -0.2251
     11 C         140.4935  144.5032  163.3345 C.ar    1  UNL1        0.1633
     12 C         141.1163  141.7619  166.8484 C.ar    1  UNL1        0.0015
     13 C         142.4889  141.2445  167.1619 C.ar    1  UNL1        0.0000
     14 C         142.6965  140.3307  168.3332 C.ar    1  UNL1       -0.0001
     15 C         141.5315  139.9344  169.1911 C.ar    1  UNL1        0.0039
     16 C         140.1589  140.4519  168.8776 C.ar    1  UNL1        0.0714
     17 C         139.9513  141.3657  167.7062 C.ar    1  UNL1        0.0039
     18 C         138.9940  140.0556  169.7353 C.3     1  UNL1        0.4186
     19 F         137.8290  139.6593  170.5931 F       1  UNL1       -0.1659
     20 F         138.2587  139.5805  168.5173 F       1  UNL1       -0.1659
     21 F         139.7292  140.5307  170.9534 F       1  UNL1       -0.1659
     22 C         143.4714  142.7806  161.5374 C.3     1  UNL1        0.1956
     23 C         143.3804  141.2834  161.5557 C.2     1  UNL1        0.2490
     24 O         142.6360  140.5639  160.4703 O.2     1  UNL1       -0.2728
     25 N         144.0339  140.5058  162.6595 N.am    1  UNL1       -0.2722
     26 C         144.1548  139.0510  163.0042 C.3     1  UNL1        0.1305
     27 C         144.9580  139.4060  164.2204 C.3     1  UNL1        0.2003
     28 F         145.6114  138.6284  165.3241 F       1  UNL1       -0.2336
     29 C         144.8370  140.8608  163.8756 C.3     1  UNL1        0.1305
@<TRIPOS>BOND
     1     1     2    1
     2     2     3   ar
     3     3     4    2
     4     3     5   ar
     5     5    22    1
     6    22    23    1
     7    23    24    2
     8    23    25   am
     9    25    26    1
    10    26    27    1
    11    27    28    1
    12    27    29    1
    13     5     6   ar
    14     6     7   ar
    15     7     8   ar
    16     8    12    1
    17    12    13   ar
    18    13    14   ar
    19    14    15   ar
    20    15    16   ar
    21    16    18    1
    22    18    19    1
    23    18    20    1
    24    18    21    1
    25    16    17   ar
    26     8     9   ar
    27     9    10   ar
    28    10    11   ar
    29    11     2   ar
    30    29    25    1
    31    11     6   ar
    32    17    12   ar
@<TRIPOS>MOLECULE
*****
 29 32 0 0 0
SMALL
GASTEIGER

@<TRIPOS>ATOM
      1 C         137.7731  140.8660  158.1589 C.3     1  UNL1        0.1366
      2 N         138.3984  141.5657  159.3291 N.ar    1  UNL1       -0.2630
      3 C         139.1327  142.8730  159.2853 C.ar    1  UNL1        0.3331
      4 O         139.3705  143.7101  158.0635 O.2     1  UNL1       -0.2462
      5 N         139.5873  143.1961  160.6777 N.ar    1  UNL1       -0.2694
      6 C         139.1341  142.0886  161.5821 C.ar    1  UNL1        0.0986
      7 C         139.2955  141.8675  163.0569 C.ar    1  UNL1        0.0219
      8 C         138.7221  140.6387  163.6982 C.ar    1  UNL1        0.0207
      9 C         137.9874  139.6310  162.8647 C.ar    1  UNL1        0.1006
     10 N         137.8259  139.8521  161.3899 N.ar    1  UNL1       -0.2251
     11 C         138.3993  141.0809  160.7487 C.ar    1  UNL1        0.1633
     12 C         138.8836  140.4175  165.1730 C.ar    1  UNL1        0.0015
     13 C         138.1799  139.2737  165.8413 C.ar    1  UNL1        0.0000
     14 C         138.3413  139.0525  167.3161 C.ar    1  UNL1       -0.0001
     15 C         139.2064  139.9752  168.1227 C.ar    1  UNL1        0.0039
     16 C         139.9100  141.1190  167.4544 C.ar    1  UNL1        0.0714
     17 C         139.7486  141.3402  165.9795 C.ar    1  UNL1        0.0039
     18 C         140.7750  142.0416  168.2609 C.3     1  UNL1        0.4186
     19 F         141.6399  142.9643  169.0674 F       1  UNL1       -0.1659
     20 F         141.1780  140.8952  169.1401 F       1  UNL1       -0.1659
     21 F         140.3719  143.1881  167.3816 F       1  UNL1       -0.1659
     22 C         140.3596  144.4132  161.0929 C.3     1  UNL1        0.1956
     23 C         141.8586  144.4058  161.0360 C.2     1  UNL1        0.2490
     24 O         142.5588  144.4017  159.7094 O.2     1  UNL1       -0.2728
     25 N         142.6573  144.4024  162.3056 N.am    1  UNL1       -0.2722
     26 C         144.1199  144.3954  162.6385 C.3     1  UNL1        0.1305
     27 C         143.7869  144.3977  164.1012 C.3     1  UNL1        0.2003
     28 F         144.5856  144.3943  165.3708 F       1  UNL1       -0.2336
     29 C         142.3244  144.4047  163.7682 C.3     1  UNL1        0.1305
@<TRIPOS>BOND
     1     1     2    1
     2     2     3   ar
     3     3     4    2
     4     3     5   ar
     5     5    22    1
     6    22    23    1
     7    23    24    2
     8    23    25   am
     9    25    26    1
    10    26    27    1
    11    27    28    1
    12    27    29    1
    13     5     6   ar
    14     6     7   ar
    15     7     8   ar
    16     8    12    1
    17    12    13   ar
    18    13    14   ar
    19    14    15   ar
    20    15    16   ar
    21    16    18    1
    22    18    19    1
    23    18    20    1
    24    18    21    1
    25    16    17   ar
    26     8     9   ar
    27     9    10   ar
    28    10    11   ar
    29    11     2   ar
    30    29    25    1
    31    11     6   ar
    32    17    12   ar
