@<TRIPOS>MOLECULE
*****
 27 28 0 0 0
SMALL
GASTEIGER

@<TRIPOS>ATOM
      1 C         139.9434  143.9165  164.6522 C.2     1  UNL1        0.0707
      2 C         140.3876  144.6584  163.4266 C.2     1  UNL1        0.0283
      3 C         139.3973  145.4604  162.6352 C.3     1  UNL1        0.0470
      4 N         141.8221  144.5984  162.9923 N.pl3   1  UNL1       -0.3192
      5 C         142.8123  143.7964  163.7836 C.2     1  UNL1        0.0283
      6 C         144.2468  143.7363  163.3493 C.3     1  UNL1        0.0470
      7 C         142.3681  143.0544  165.0092 C.2     1  UNL1        0.0707
      8 C         140.9336  143.1145  165.4435 C.3     1  UNL1        0.0814
      9 H         142.1137  145.0853  162.1879 H       1  UNL1        0.1516
     10 C         140.4894  142.3725  166.6691 C.ar    1  UNL1       -0.0077
     11 C         140.0283  140.9494  166.5584 C.ar    1  UNL1       -0.0032
     12 C         139.5840  140.2074  167.7840 C.ar    1  UNL1        0.0060
     13 C         139.6009  140.8885  169.1204 C.ar    1  UNL1        0.0752
     14 C         140.0620  142.3116  169.2311 C.ar    1  UNL1        0.2898
     15 C         140.5063  143.0536  168.0055 C.ar    1  UNL1        0.0716
     16 N         140.0789  142.9927  170.5674 N.pl3   1  UNL1        0.0809
     17 O         139.7142  144.4437  170.6744 O.2     1  UNL1        0.0415
     18 O         140.4605  142.2227  171.7968 O.co2   1  UNL1       -0.5760
     19 C         138.5089  143.9765  165.0865 C.2     1  UNL1        0.3387
     20 O         138.0120  145.1530  165.8732 O.2     1  UNL1       -0.2452
     21 O         137.5712  142.8601  164.7340 O.3     1  UNL1       -0.4456
     22 C         138.0084  140.6797  163.3905 C.3     1  UNL1        0.0513
     23 C         137.7110  142.1496  163.4203 C.3     1  UNL1        0.2089
     24 C         143.3584  142.2524  165.8005 C.2     1  UNL1        0.3388
     25 O         144.0122  142.8510  167.0106 O.2     1  UNL1       -0.2452
     26 O         143.6947  140.8519  165.3818 O.3     1  UNL1       -0.4415
     27 C         142.9340  140.1996  164.2657 C.3     1  UNL1        0.2559
@<TRIPOS>UNITY_ATOM_ATTR
16 1
charge 1
18 1
charge -1
@<TRIPOS>BOND
     1    22    23    1
     2    23    21    1
     3    21    19    1
     4    19    20    2
     5    19     1    1
     6     1     2    2
     7     2     3    1
     8     2     4    1
     9     4     5    1
    10     5     6    1
    11     5     7    2
    12     7    24    1
    13    24    25    2
    14    24    26    1
    15    26    27    1
    16     7     8    1
    17     8    10    1
    18    10    11   ar
    19    11    12   ar
    20    12    13   ar
    21    13    14   ar
    22    14    16    1
    23    16    17    2
    24    16    18    1
    25    14    15   ar
    26     8     1    1
    27    15    10   ar
    28     4     9    1
@<TRIPOS>MOLECULE
*****
 27 28 0 0 0
SMALL
GASTEIGER

@<TRIPOS>ATOM
      1 C         142.3808  142.9438  165.0472 C.2     1  UNL1        0.0707
      2 C         142.8583  143.6769  163.8288 C.2     1  UNL1        0.0283
      3 C         144.2953  143.5791  163.4098 C.3     1  UNL1        0.0470
      4 N         141.8988  144.5077  163.0293 N.pl3   1  UNL1       -0.3192
      5 C         140.4619  144.6054  163.4482 C.2     1  UNL1        0.0283
      6 C         139.5024  145.4362  162.6487 C.3     1  UNL1        0.0470
      7 C         139.9844  143.8724  164.6666 C.2     1  UNL1        0.0707
      8 C         140.9438  143.0416  165.4661 C.3     1  UNL1        0.0814
      9 H         142.2123  144.9888  162.2296 H       1  UNL1        0.1516
     10 C         140.4662  142.3086  166.6846 C.ar    1  UNL1       -0.0077
     11 C         139.9502  140.9055  166.5616 C.ar    1  UNL1       -0.0032
     12 C         139.4726  140.1725  167.7799 C.ar    1  UNL1        0.0060
     13 C         139.5111  140.8425  169.1215 C.ar    1  UNL1        0.0752
     14 C         140.0272  142.2455  169.2446 C.ar    1  UNL1        0.2898
     15 C         140.5047  142.9786  168.0261 C.ar    1  UNL1        0.0716
     16 N         140.0657  142.9155  170.5860 N.pl3   1  UNL1        0.0809
     17 O         140.4859  142.1406  171.7997 O.2     1  UNL1        0.0415
     18 O         139.6839  144.3604  170.7139 O.co2   1  UNL1       -0.5760
     19 C         143.3402  142.1130  165.8467 C.2     1  UNL1        0.3387
     20 O         143.7740  142.5699  167.2080 O.2     1  UNL1       -0.2452
     21 O         143.8659  140.8254  165.2850 O.3     1  UNL1       -0.4456
     22 C         143.0248  139.1526  167.0862 C.3     1  UNL1        0.0513
     23 C         143.2083  139.5262  165.6451 C.3     1  UNL1        0.2089
     24 C         138.5473  143.9702  165.0856 C.2     1  UNL1        0.3388
     25 O         138.0756  145.1541  165.8765 O.2     1  UNL1       -0.2452
     26 O         137.5821  142.8839  164.7136 O.3     1  UNL1       -0.4415
     27 C         137.6724  142.2292  163.3670 C.3     1  UNL1        0.2559
@<TRIPOS>UNITY_ATOM_ATTR
16 1
charge 1
18 1
charge -1
@<TRIPOS>BOND
     1    22    23    1
     2    23    21    1
     3    21    19    1
     4    19    20    2
     5    19     1    1
     6     1     2    2
     7     2     3    1
     8     2     4    1
     9     4     5    1
    10     5     6    1
    11     5     7    2
    12     7    24    1
    13    24    25    2
    14    24    26    1
    15    26    27    1
    16     7     8    1
    17     8    10    1
    18    10    11   ar
    19    11    12   ar
    20    12    13   ar
    21    13    14   ar
    22    14    16    1
    23    16    17    2
    24    16    18    1
    25    14    15   ar
    26     8     1    1
    27    15    10   ar
    28     4     9    1
@<TRIPOS>MOLECULE
*****
 27 28 0 0 0
SMALL
GASTEIGER

@<TRIPOS>ATOM
      1 C         139.1952  140.4152  165.9896 C.2     1  UNL1        0.0707
      2 C         138.7096  139.3069  166.8760 C.2     1  UNL1        0.0283
      3 C         137.9769  138.1394  166.2841 C.3     1  UNL1        0.0470
      4 N         138.9565  139.3661  168.3544 N.pl3   1  UNL1       -0.3192
      5 C         139.6891  140.5335  168.9463 C.2     1  UNL1        0.0283
      6 C         139.9361  140.5926  170.4246 C.3     1  UNL1        0.0470
      7 C         140.1748  141.6418  168.0598 C.2     1  UNL1        0.0707
      8 C         139.9278  141.5826  166.5815 C.3     1  UNL1        0.0814
      9 H         138.6378  138.6386  168.9362 H       1  UNL1        0.1516
     10 C         140.4135  142.6909  165.6950 C.ar    1  UNL1       -0.0077
     11 C         139.4895  143.8119  165.3211 C.ar    1  UNL1       -0.0032
     12 C         139.9751  144.9202  164.4347 C.ar    1  UNL1        0.0060
     13 C         141.3848  144.9076  163.9221 C.ar    1  UNL1        0.0752
     14 C         142.3088  143.7867  164.2960 C.ar    1  UNL1        0.2898
     15 C         141.8231  142.6783  165.1824 C.ar    1  UNL1        0.0716
     16 N         143.7184  143.7741  163.7834 N.pl3   1  UNL1        0.0809
     17 O         144.0992  144.6337  162.6146 O.2     1  UNL1        0.0415
     18 O         144.7473  142.9019  164.4397 O.co2   1  UNL1       -0.5760
     19 C         138.9483  140.3560  164.5112 C.2     1  UNL1        0.3387
     20 O         139.9737  139.7443  163.6034 O.2     1  UNL1       -0.2452
     21 O         137.6759  140.9086  163.9407 O.3     1  UNL1       -0.4456
     22 C         137.9503  142.7308  162.1092 C.3     1  UNL1        0.0513
     23 C         137.6171  141.3214  162.4998 C.3     1  UNL1        0.2089
     24 C         140.9074  142.8093  168.6517 C.2     1  UNL1        0.3388
     25 O         140.1402  143.9532  169.2455 O.2     1  UNL1       -0.2452
     26 O         142.4072  142.8327  168.6497 O.3     1  UNL1       -0.4415
     27 C         143.1698  142.1229  169.7288 C.3     1  UNL1        0.2559
@<TRIPOS>UNITY_ATOM_ATTR
16 1
charge 1
18 1
charge -1
@<TRIPOS>BOND
     1    22    23    1
     2    23    21    1
     3    21    19    1
     4    19    20    2
     5    19     1    1
     6     1     2    2
     7     2     3    1
     8     2     4    1
     9     4     5    1
    10     5     6    1
    11     5     7    2
    12     7    24    1
    13    24    25    2
    14    24    26    1
    15    26    27    1
    16     7     8    1
    17     8    10    1
    18    10    11   ar
    19    11    12   ar
    20    12    13   ar
    21    13    14   ar
    22    14    16    1
    23    16    17    2
    24    16    18    1
    25    14    15   ar
    26     8     1    1
    27    15    10   ar
    28     4     9    1
@<TRIPOS>MOLECULE
*****
 27 28 0 0 0
SMALL
GASTEIGER

@<TRIPOS>ATOM
      1 C         140.1330  141.6599  168.0285 C.2     1  UNL1        0.0707
      2 C         139.6313  140.5542  168.9092 C.2     1  UNL1        0.0283
      3 C         139.8393  140.6242  170.3931 C.3     1  UNL1        0.0470
      4 N         138.9216  139.3784  168.3060 N.pl3   1  UNL1       -0.3192
      5 C         138.7136  139.3083  166.8221 C.2     1  UNL1        0.0283
      6 C         138.0039  138.1325  166.2189 C.3     1  UNL1        0.0470
      7 C         139.2153  140.4141  165.9415 C.2     1  UNL1        0.0707
      8 C         139.9250  141.5899  166.5447 C.3     1  UNL1        0.0814
      9 H         138.5923  138.6526  168.8840 H       1  UNL1        0.1516
     10 C         140.4268  142.6956  165.6640 C.ar    1  UNL1       -0.0077
     11 C         139.5108  143.8174  165.2732 C.ar    1  UNL1       -0.0032
     12 C         140.0125  144.9231  164.3925 C.ar    1  UNL1        0.0060
     13 C         141.4302  144.9071  163.9026 C.ar    1  UNL1        0.0752
     14 C         142.3461  143.7854  164.2934 C.ar    1  UNL1        0.2898
     15 C         141.8444  142.6796  165.1741 C.ar    1  UNL1        0.0716
     16 N         143.7638  143.7694  163.8035 N.pl3   1  UNL1        0.0809
     17 O         144.1627  144.6194  162.6337 O.2     1  UNL1        0.0415
     18 O         144.7825  142.9035  164.4834 O.co2   1  UNL1       -0.5760
     19 C         140.8427  142.8357  168.6317 C.2     1  UNL1        0.3387
     20 O         140.0532  143.9697  169.2153 O.2     1  UNL1       -0.2452
     21 O         142.3420  142.8775  168.6514 O.3     1  UNL1       -0.4456
     22 C         143.3444  140.9593  170.0886 C.3     1  UNL1        0.0513
     23 C         143.0891  142.4211  169.8693 C.3     1  UNL1        0.2089
     24 C         139.0074  140.3441  164.4576 C.2     1  UNL1        0.3388
     25 O         140.1183  139.8744  163.5659 O.2     1  UNL1       -0.2452
     26 O         137.6884  140.7437  163.8655 O.3     1  UNL1       -0.4415
     27 C         137.6353  141.7833  162.7855 C.3     1  UNL1        0.2559
@<TRIPOS>UNITY_ATOM_ATTR
16 1
charge 1
18 1
charge -1
@<TRIPOS>BOND
     1    22    23    1
     2    23    21    1
     3    21    19    1
     4    19    20    2
     5    19     1    1
     6     1     2    2
     7     2     3    1
     8     2     4    1
     9     4     5    1
    10     5     6    1
    11     5     7    2
    12     7    24    1
    13    24    25    2
    14    24    26    1
    15    26    27    1
    16     7     8    1
    17     8    10    1
    18    10    11   ar
    19    11    12   ar
    20    12    13   ar
    21    13    14   ar
    22    14    16    1
    23    16    17    2
    24    16    18    1
    25    14    15   ar
    26     8     1    1
    27    15    10   ar
    28     4     9    1
@<TRIPOS>MOLECULE
*****
 27 28 0 0 0
SMALL
GASTEIGER

@<TRIPOS>ATOM
      1 C         142.4981  142.9976  163.6992 C.2     1  UNL1        0.0707
      2 C         143.0089  143.8744  162.5945 C.2     1  UNL1        0.0283
      3 C         144.3962  143.6755  162.0598 C.3     1  UNL1        0.0470
      4 N         142.1325  144.9500  162.0245 N.pl3   1  UNL1       -0.3192
      5 C         140.7452  145.1488  162.5592 C.2     1  UNL1        0.0283
      6 C         139.8688  146.2244  161.9892 C.3     1  UNL1        0.0470
      7 C         140.2344  144.2721  163.6639 C.2     1  UNL1        0.0707
      8 C         141.1109  143.1965  164.2339 C.3     1  UNL1        0.0814
      9 H         142.4677  145.5254  161.2995 H       1  UNL1        0.1516
     10 C         140.6000  142.3197  165.3386 C.ar    1  UNL1       -0.0077
     11 C         140.9189  142.6500  166.7666 C.ar    1  UNL1       -0.0032
     12 C         140.4081  141.7734  167.8713 C.ar    1  UNL1        0.0060
     13 C         139.5783  140.5662  167.5481 C.ar    1  UNL1        0.0752
     14 C         139.2594  140.2359  166.1201 C.ar    1  UNL1        0.2898
     15 C         139.7703  141.1127  165.0154 C.ar    1  UNL1        0.0716
     16 N         138.4297  139.0289  165.7968 N.pl3   1  UNL1        0.0809
     17 O         137.3978  138.5450  166.7720 O.2     1  UNL1        0.0415
     18 O         138.6318  138.3057  164.4983 O.co2   1  UNL1       -0.5760
     19 C         143.3746  141.9220  164.2692 C.2     1  UNL1        0.3387
     20 O         144.4284  142.2696  165.2785 O.2     1  UNL1       -0.2452
     21 O         143.1972  140.4988  163.8300 O.3     1  UNL1       -0.4456
     22 C         142.7865  138.9234  165.8547 C.3     1  UNL1        0.0513
     23 C         143.6520  139.3779  164.7170 C.3     1  UNL1        0.2089
     24 C         138.8471  144.4709  164.1987 C.2     1  UNL1        0.3388
     25 O         138.6413  145.1765  165.5062 O.2     1  UNL1       -0.2452
     26 O         137.6656  143.9641  163.4258 O.3     1  UNL1       -0.4415
     27 C         137.8539  142.9150  162.3704 C.3     1  UNL1        0.2559
@<TRIPOS>UNITY_ATOM_ATTR
16 1
charge 1
18 1
charge -1
@<TRIPOS>BOND
     1    22    23    1
     2    23    21    1
     3    21    19    1
     4    19    20    2
     5    19     1    1
     6     1     2    2
     7     2     3    1
     8     2     4    1
     9     4     5    1
    10     5     6    1
    11     5     7    2
    12     7    24    1
    13    24    25    2
    14    24    26    1
    15    26    27    1
    16     7     8    1
    17     8    10    1
    18    10    11   ar
    19    11    12   ar
    20    12    13   ar
    21    13    14   ar
    22    14    16    1
    23    16    17    2
    24    16    18    1
    25    14    15   ar
    26     8     1    1
    27    15    10   ar
    28     4     9    1
@<TRIPOS>MOLECULE
*****
 27 28 0 0 0
SMALL
GASTEIGER

@<TRIPOS>ATOM
      1 C         140.1617  144.2621  163.8043 C.2     1  UNL1        0.0707
      2 C         140.6624  145.1445  162.6994 C.2     1  UNL1        0.0283
      3 C         139.7591  146.1811  162.0997 C.3     1  UNL1        0.0470
      4 N         142.0663  144.9903  162.1942 N.pl3   1  UNL1       -0.3192
      5 C         142.9696  143.9538  162.7939 C.2     1  UNL1        0.0283
      6 C         144.3735  143.7996  162.2887 C.3     1  UNL1        0.0470
      7 C         142.4690  143.0714  163.8988 C.2     1  UNL1        0.0707
      8 C         141.0650  143.2256  164.4040 C.3     1  UNL1        0.0814
      9 H         142.3949  145.5694  161.4690 H       1  UNL1        0.1516
     10 C         140.5644  142.3432  165.5089 C.ar    1  UNL1       -0.0077
     11 C         140.8615  142.6892  166.9379 C.ar    1  UNL1       -0.0032
     12 C         140.3609  141.8068  168.0429 C.ar    1  UNL1        0.0060
     13 C         139.5633  140.5785  167.7188 C.ar    1  UNL1        0.0752
     14 C         139.2662  140.2325  166.2898 C.ar    1  UNL1        0.2898
     15 C         139.7668  141.1149  165.1848 C.ar    1  UNL1        0.0716
     16 N         138.4686  139.0043  165.9657 N.pl3   1  UNL1        0.0809
     17 O         137.3804  138.5503  166.8930 O.2     1  UNL1        0.0415
     18 O         138.7591  138.2299  164.7143 O.co2   1  UNL1       -0.5760
     19 C         138.7578  144.4163  164.3095 C.2     1  UNL1        0.3387
     20 O         138.5016  145.1182  165.6102 O.2     1  UNL1       -0.2452
     21 O         137.6101  143.8686  163.5141 O.3     1  UNL1       -0.4456
     22 C         137.3991  141.4084  162.7060 C.3     1  UNL1        0.0513
     23 C         137.8539  142.8184  162.4712 C.3     1  UNL1        0.2089
     24 C         143.3723  142.0348  164.4985 C.2     1  UNL1        0.3388
     25 O         144.1420  142.3434  165.7483 O.2     1  UNL1       -0.2452
     26 O         143.5057  140.6897  163.8483 O.3     1  UNL1       -0.4415
     27 C         144.7832  139.9152  163.9826 C.3     1  UNL1        0.2559
@<TRIPOS>UNITY_ATOM_ATTR
16 1
charge 1
18 1
charge -1
@<TRIPOS>BOND
     1    22    23    1
     2    23    21    1
     3    21    19    1
     4    19    20    2
     5    19     1    1
     6     1     2    2
     7     2     3    1
     8     2     4    1
     9     4     5    1
    10     5     6    1
    11     5     7    2
    12     7    24    1
    13    24    25    2
    14    24    26    1
    15    26    27    1
    16     7     8    1
    17     8    10    1
    18    10    11   ar
    19    11    12   ar
    20    12    13   ar
    21    13    14   ar
    22    14    16    1
    23    16    17    2
    24    16    18    1
    25    14    15   ar
    26     8     1    1
    27    15    10   ar
    28     4     9    1
@<TRIPOS>MOLECULE
*****
 27 28 0 0 0
SMALL
GASTEIGER

@<TRIPOS>ATOM
      1 C         139.9519  141.8126  164.6892 C.2     1  UNL1        0.0707
      2 C         139.2952  142.0852  163.3685 C.2     1  UNL1        0.0283
      3 C         139.2514  143.4835  162.8271 C.3     1  UNL1        0.0470
      4 N         138.6824  140.9597  162.5890 N.pl3   1  UNL1       -0.3192
      5 C         138.7262  139.5615  163.1303 C.2     1  UNL1        0.0283
      6 C         138.1134  138.4359  162.3509 C.3     1  UNL1        0.0470
      7 C         139.3828  139.2888  164.4511 C.2     1  UNL1        0.0707
      8 C         139.9957  140.4144  165.2305 C.3     1  UNL1        0.0814
      9 H         138.2514  141.1386  161.7221 H       1  UNL1        0.1516
     10 C         140.6523  140.1417  166.5514 C.ar    1  UNL1       -0.0077
     11 C         142.0823  139.6912  166.5992 C.ar    1  UNL1       -0.0032
     12 C         142.7389  139.4186  167.9200 C.ar    1  UNL1        0.0060
     13 C         141.9656  139.5964  169.1930 C.ar    1  UNL1        0.0752
     14 C         140.5356  140.0469  169.1451 C.ar    1  UNL1        0.2898
     15 C         139.8790  140.3195  167.8243 C.ar    1  UNL1        0.0716
     16 N         139.7623  140.2247  170.4180 N.pl3   1  UNL1        0.0809
     17 O         140.4441  140.7632  171.6408 O.2     1  UNL1        0.0415
     18 O         138.3073  139.8639  170.4682 O.co2   1  UNL1       -0.5760
     19 C         140.5647  142.9382  165.4687 C.2     1  UNL1        0.3387
     20 O         139.8043  143.5709  166.5962 O.2     1  UNL1       -0.2452
     21 O         141.9379  143.4311  165.1206 O.3     1  UNL1       -0.4456
     22 C         144.2261  142.2241  164.8807 C.3     1  UNL1        0.0513
     23 C         142.8704  142.5592  164.3330 C.3     1  UNL1        0.2089
     24 C         139.4267  137.8906  164.9925 C.2     1  UNL1        0.3388
     25 O         138.3067  137.3837  165.8520 O.2     1  UNL1       -0.2452
     26 O         140.5904  136.9993  164.6743 O.3     1  UNL1       -0.4415
     27 C         141.5980  137.4198  163.6458 C.3     1  UNL1        0.2559
@<TRIPOS>UNITY_ATOM_ATTR
16 1
charge 1
18 1
charge -1
@<TRIPOS>BOND
     1    22    23    1
     2    23    21    1
     3    21    19    1
     4    19    20    2
     5    19     1    1
     6     1     2    2
     7     2     3    1
     8     2     4    1
     9     4     5    1
    10     5     6    1
    11     5     7    2
    12     7    24    1
    13    24    25    2
    14    24    26    1
    15    26    27    1
    16     7     8    1
    17     8    10    1
    18    10    11   ar
    19    11    12   ar
    20    12    13   ar
    21    13    14   ar
    22    14    16    1
    23    16    17    2
    24    16    18    1
    25    14    15   ar
    26     8     1    1
    27    15    10   ar
    28     4     9    1
@<TRIPOS>MOLECULE
*****
 27 28 0 0 0
SMALL
GASTEIGER

@<TRIPOS>ATOM
      1 C         142.0239  143.2386  164.2310 C.2     1  UNL1        0.0707
      2 C         142.6737  144.5402  163.8657 C.2     1  UNL1        0.0283
      3 C         144.0830  144.8217  164.2957 C.3     1  UNL1        0.0470
      4 N         141.9143  145.5604  163.0704 N.pl3   1  UNL1       -0.3192
      5 C         140.5051  145.2790  162.6404 C.2     1  UNL1        0.0283
      6 C         139.7457  146.2992  161.8451 C.3     1  UNL1        0.0470
      7 C         139.8553  143.9774  163.0057 C.2     1  UNL1        0.0707
      8 C         140.6147  142.9572  163.8010 C.3     1  UNL1        0.0814
      9 H         142.3408  146.4147  162.8307 H       1  UNL1        0.1516
     10 C         139.9648  141.6555  164.1663 C.ar    1  UNL1       -0.0077
     11 C         139.3686  141.4717  165.5304 C.ar    1  UNL1       -0.0032
     12 C         138.7188  140.1701  165.8957 C.ar    1  UNL1        0.0060
     13 C         138.6651  139.0522  164.8969 C.ar    1  UNL1        0.0752
     14 C         139.2613  139.2360  163.5328 C.ar    1  UNL1        0.2898
     15 C         139.9112  140.5377  163.1675 C.ar    1  UNL1        0.0716
     16 N         139.2077  138.1182  162.5340 N.pl3   1  UNL1        0.0809
     17 O         137.9303  137.8249  161.8045 O.2     1  UNL1        0.0415
     18 O         140.4315  137.2937  162.2648 O.co2   1  UNL1       -0.5760
     19 C         142.7833  142.2184  165.0263 C.2     1  UNL1        0.3387
     20 O         142.8621  142.3383  166.5194 O.2     1  UNL1       -0.2452
     21 O         143.4638  141.0783  164.3285 O.3     1  UNL1       -0.4456
     22 C         142.4410  138.9893  165.4862 C.3     1  UNL1        0.0513
     23 C         143.6416  139.7662  165.0335 C.3     1  UNL1        0.2089
     24 C         138.4461  143.6959  162.5757 C.2     1  UNL1        0.3388
     25 O         138.1755  143.1438  161.2075 O.2     1  UNL1       -0.2452
     26 O         137.3074  143.9665  163.5139 O.3     1  UNL1       -0.4415
     27 C         137.5796  144.4977  164.8901 C.3     1  UNL1        0.2559
@<TRIPOS>UNITY_ATOM_ATTR
16 1
charge 1
18 1
charge -1
@<TRIPOS>BOND
     1    22    23    1
     2    23    21    1
     3    21    19    1
     4    19    20    2
     5    19     1    1
     6     1     2    2
     7     2     3    1
     8     2     4    1
     9     4     5    1
    10     5     6    1
    11     5     7    2
    12     7    24    1
    13    24    25    2
    14    24    26    1
    15    26    27    1
    16     7     8    1
    17     8    10    1
    18    10    11   ar
    19    11    12   ar
    20    12    13   ar
    21    13    14   ar
    22    14    16    1
    23    16    17    2
    24    16    18    1
    25    14    15   ar
    26     8     1    1
    27    15    10   ar
    28     4     9    1
@<TRIPOS>MOLECULE
*****
 27 28 0 0 0
SMALL
GASTEIGER

@<TRIPOS>ATOM
      1 C         139.3612  143.0181  164.4671 C.2     1  UNL1        0.0707
      2 C         138.5057  142.7542  163.2636 C.2     1  UNL1        0.0283
      3 C         137.9830  143.9002  162.4490 C.3     1  UNL1        0.0470
      4 N         138.1730  141.3443  162.8745 N.pl3   1  UNL1       -0.3192
      5 C         138.6957  140.1983  163.6889 C.2     1  UNL1        0.0283
      6 C         138.3630  138.7883  163.2999 C.3     1  UNL1        0.0470
      7 C         139.5512  140.4622  164.8925 C.2     1  UNL1        0.0707
      8 C         139.8839  141.8721  165.2815 C.3     1  UNL1        0.0814
      9 H         137.6115  141.1711  162.0846 H       1  UNL1        0.1516
     10 C         140.7394  142.1360  166.4851 C.ar    1  UNL1       -0.0077
     11 C         142.2212  141.9141  166.4152 C.ar    1  UNL1       -0.0032
     12 C         143.0767  142.1779  167.6187 C.ar    1  UNL1        0.0060
     13 C         142.4504  142.6637  168.8922 C.ar    1  UNL1        0.0752
     14 C         140.9685  142.8857  168.9621 C.ar    1  UNL1        0.2898
     15 C         140.1130  142.6218  167.7585 C.ar    1  UNL1        0.0716
     16 N         140.3422  143.3715  170.2356 N.pl3   1  UNL1        0.0809
     17 O         139.9058  144.8013  170.3589 O.2     1  UNL1        0.0415
     18 O         140.1522  142.4275  171.3856 O.co2   1  UNL1       -0.5760
     19 C         139.6939  144.4281  164.8562 C.2     1  UNL1        0.3387
     20 O         138.7438  145.2147  165.7096 O.2     1  UNL1       -0.2452
     21 O         140.9767  145.0514  164.3918 O.3     1  UNL1       -0.4456
     22 C         143.3745  144.5173  163.5458 C.3     1  UNL1        0.0513
     23 C         141.8931  144.2908  163.4797 C.3     1  UNL1        0.2089
     24 C         140.0739  139.3161  165.7070 C.2     1  UNL1        0.3388
     25 O         139.3122  138.8410  166.9086 O.2     1  UNL1       -0.2452
     26 O         141.3584  138.6452  165.3198 O.3     1  UNL1       -0.4415
     27 C         141.3308  137.3149  164.6275 C.3     1  UNL1        0.2559
@<TRIPOS>UNITY_ATOM_ATTR
16 1
charge 1
18 1
charge -1
@<TRIPOS>BOND
     1    22    23    1
     2    23    21    1
     3    21    19    1
     4    19    20    2
     5    19     1    1
     6     1     2    2
     7     2     3    1
     8     2     4    1
     9     4     5    1
    10     5     6    1
    11     5     7    2
    12     7    24    1
    13    24    25    2
    14    24    26    1
    15    26    27    1
    16     7     8    1
    17     8    10    1
    18    10    11   ar
    19    11    12   ar
    20    12    13   ar
    21    13    14   ar
    22    14    16    1
    23    16    17    2
    24    16    18    1
    25    14    15   ar
    26     8     1    1
    27    15    10   ar
    28     4     9    1
