@<TRIPOS>MOLECULE
*****
 40 43 0 0 0
SMALL
GASTEIGER

@<TRIPOS>ATOM
      1 C         141.0210  141.1757  168.6434 C.3     1  UNL1        0.0692
      2 C         140.3493  142.1485  167.7201 C.3     1  UNL1        0.0126
      3 C         140.6169  142.0899  166.2453 C.3     1  UNL1        0.0269
      4 C         141.5562  141.0586  165.6938 C.ar    1  UNL1       -0.0194
      5 C         141.8237  141.0000  164.2191 C.ar    1  UNL1       -0.0026
      6 C         142.7630  139.9687  163.6676 C.ar    1  UNL1        0.0189
      7 C         143.4347  138.9959  164.5910 C.ar    1  UNL1        0.0016
      8 C         143.1671  139.0545  166.0657 C.ar    1  UNL1        0.0026
      9 C         142.2279  140.0858  166.6171 C.ar    1  UNL1        0.0307
     10 C         141.9603  140.1444  168.0920 C.2     1  UNL1        0.1726
     11 O         142.6320  139.1716  169.0153 O.2     1  UNL1       -0.2914
     12 C         143.0306  139.9101  162.1928 C.ar    1  UNL1        0.1005
     13 C         143.9649  138.8746  161.6407 C.ar    1  UNL1        0.1194
     14 N         144.2325  138.8160  160.1659 N.ar    1  UNL1       -0.2258
     15 C         143.5658  139.7929  159.2432 C.ar    1  UNL1        0.1547
     16 C         142.6315  140.8283  159.7954 C.ar    1  UNL1        0.1332
     17 N         142.3639  140.8869  161.2702 N.ar    1  UNL1       -0.2393
     18 N         143.8334  139.7342  157.7685 N.am    1  UNL1       -0.2521
     19 C         144.7106  140.7661  157.1238 C.2     1  UNL1        0.3093
     20 O         145.3203  141.8566  157.9539 O.2     1  UNL1       -0.2521
     21 N         144.9782  140.7075  155.6491 N.am    1  UNL1       -0.2680
     22 H         143.4332  139.0185  157.2237 H       1  UNL1        0.1579
     23 H         144.5781  139.9917  155.1043 H       1  UNL1        0.1564
     24 C         145.8555  141.7394  155.0044 C.ar    1  UNL1        0.0540
     25 C         147.3436  141.5518  154.9841 C.ar    1  UNL1        0.0172
     26 C         148.2208  142.5837  154.3394 C.ar    1  UNL1        0.0332
     27 C         147.6100  143.8031  153.7150 C.ar    1  UNL1        0.1675
     28 F         148.4873  144.8350  153.0704 F       1  UNL1       -0.2018
     29 C         146.1219  143.9907  153.7353 C.ar    1  UNL1        0.1686
     30 F         145.5111  145.2101  153.1110 F       1  UNL1       -0.2018
     31 C         145.2446  142.9588  154.3800 C.ar    1  UNL1        0.0467
     32 C         141.4139  140.4768  169.9111 C.3     1  UNL1        0.0492
     33 O         140.6309  140.8159  172.3651 O.co2   1  UNL1       -0.5492
     34 C         140.3977  140.2575  170.9926 C.2     1  UNL1        0.0508
     35 O         139.1485  139.4798  170.7014 O.co2   1  UNL1       -0.5492
     36 C         140.2182  141.9643  169.6351 C.3     1  UNL1        0.1109
     37 C         140.5974  143.3810  169.9500 C.3     1  UNL1        0.3982
     38 F         140.9767  144.7978  170.2649 F       1  UNL1       -0.1700
     39 F         139.2977  143.5678  170.6752 F       1  UNL1       -0.1700
     40 F         141.8971  143.1942  169.2249 F       1  UNL1       -0.1700
@<TRIPOS>UNITY_ATOM_ATTR
33 1
charge -1
@<TRIPOS>BOND
     1    33    34   ar
     2    34    35   ar
     3    34    32    1
     4     1    32    1
     5     1    36    1
     6    36    37    1
     7    37    38    1
     8    37    39    1
     9    37    40    1
    10     1     2    1
    11     2     3    1
    12     3     4    1
    13     4     5   ar
    14     5     6   ar
    15     6    12    1
    16    12    13   ar
    17    13    14   ar
    18    14    15   ar
    19    15    18    1
    20    18    19   am
    21    19    20    2
    22    19    21   am
    23    21    24    1
    24    24    25   ar
    25    25    26   ar
    26    26    27   ar
    27    27    28    1
    28    27    29   ar
    29    29    30    1
    30    29    31   ar
    31    15    16   ar
    32    16    17   ar
    33     6     7   ar
    34     7     8   ar
    35     8     9   ar
    36     9    10    1
    37    10    11    2
    38    10     1    1
    39     9     4   ar
    40    17    12   ar
    41    31    24   ar
    42    18    22    1
    43    21    23    1
@<TRIPOS>MOLECULE
*****
 40 43 0 0 0
SMALL
GASTEIGER

@<TRIPOS>ATOM
      1 C         141.0104  141.1727  168.5728 C.3     1  UNL1        0.0692
      2 C         140.2945  142.0860  167.6224 C.3     1  UNL1        0.0126
      3 C         140.5381  141.9730  166.1466 C.3     1  UNL1        0.0269
      4 C         141.4976  140.9465  165.6213 C.ar    1  UNL1       -0.0194
      5 C         141.7411  140.8335  164.1455 C.ar    1  UNL1       -0.0026
      6 C         142.7006  139.8071  163.6203 C.ar    1  UNL1        0.0189
      7 C         143.4165  138.8938  164.5707 C.ar    1  UNL1        0.0016
      8 C         143.1729  139.0068  166.0465 C.ar    1  UNL1        0.0026
      9 C         142.2135  140.0332  166.5717 C.ar    1  UNL1        0.0307
     10 C         141.9698  140.1463  168.0475 C.2     1  UNL1        0.1726
     11 O         142.6857  139.2330  168.9980 O.2     1  UNL1       -0.2914
     12 C         142.9442  139.6940  162.1445 C.ar    1  UNL1        0.1005
     13 C         143.7971  138.5827  161.6081 C.ar    1  UNL1        0.1194
     14 N         144.0407  138.4696  160.1324 N.ar    1  UNL1       -0.2258
     15 C         143.4314  139.4678  159.1929 C.ar    1  UNL1        0.1547
     16 C         142.5786  140.5791  159.7293 C.ar    1  UNL1        0.1332
     17 N         142.3350  140.6922  161.2051 N.ar    1  UNL1       -0.2393
     18 N         143.6751  139.3546  157.7172 N.am    1  UNL1       -0.2521
     19 C         143.0972  138.2040  156.9477 C.2     1  UNL1        0.3093
     20 O         142.2758  137.1665  157.6539 O.2     1  UNL1       -0.2521
     21 N         143.3409  138.0909  155.4720 N.am    1  UNL1       -0.2680
     22 H         144.2142  140.0356  157.2537 H       1  UNL1        0.1579
     23 H         143.8800  138.7718  155.0084 H       1  UNL1        0.1564
     24 C         142.7630  136.9402  154.7024 C.ar    1  UNL1        0.0540
     25 C         141.7058  137.1858  153.6671 C.ar    1  UNL1        0.0172
     26 C         141.1280  136.0352  152.8976 C.ar    1  UNL1        0.0332
     27 C         141.6073  134.6390  153.1634 C.ar    1  UNL1        0.1675
     28 F         141.0295  133.4884  152.3939 F       1  UNL1       -0.2018
     29 C         142.6646  134.3933  154.1988 C.ar    1  UNL1        0.1686
     30 F         143.1440  132.9971  154.4646 F       1  UNL1       -0.2018
     31 C         143.2424  135.5439  154.9683 C.ar    1  UNL1        0.0467
     32 C         141.4455  140.5395  169.8611 C.3     1  UNL1        0.0492
     33 O         139.2173  139.4874  170.6846 O.co2   1  UNL1       -0.5492
     34 C         140.4470  140.3026  170.9552 C.2     1  UNL1        0.0508
     35 O         140.6784  140.8809  172.3198 O.co2   1  UNL1       -0.5492
     36 C         140.2021  141.9792  169.5455 C.3     1  UNL1        0.1109
     37 C         140.6040  143.3878  169.8683 C.3     1  UNL1        0.3982
     38 F         141.0058  144.7965  170.1911 F       1  UNL1       -0.1700
     39 F         141.8569  143.2152  169.0620 F       1  UNL1       -0.1700
     40 F         139.3509  143.5604  170.6747 F       1  UNL1       -0.1700
@<TRIPOS>UNITY_ATOM_ATTR
33 1
charge -1
@<TRIPOS>BOND
     1    33    34   ar
     2    34    35   ar
     3    34    32    1
     4     1    32    1
     5     1    36    1
     6    36    37    1
     7    37    38    1
     8    37    39    1
     9    37    40    1
    10     1     2    1
    11     2     3    1
    12     3     4    1
    13     4     5   ar
    14     5     6   ar
    15     6    12    1
    16    12    13   ar
    17    13    14   ar
    18    14    15   ar
    19    15    18    1
    20    18    19   am
    21    19    20    2
    22    19    21   am
    23    21    24    1
    24    24    25   ar
    25    25    26   ar
    26    26    27   ar
    27    27    28    1
    28    27    29   ar
    29    29    30    1
    30    29    31   ar
    31    15    16   ar
    32    16    17   ar
    33     6     7   ar
    34     7     8   ar
    35     8     9   ar
    36     9    10    1
    37    10    11    2
    38    10     1    1
    39     9     4   ar
    40    17    12   ar
    41    31    24   ar
    42    18    22    1
    43    21    23    1
@<TRIPOS>MOLECULE
*****
 40 43 0 0 0
SMALL
GASTEIGER

@<TRIPOS>ATOM
      1 C         142.0946  141.5250  168.4263 C.3     1  UNL1        0.0692
      2 C         143.0549  140.8628  167.4832 C.3     1  UNL1        0.0126
      3 C         142.9120  141.0637  166.0037 C.3     1  UNL1        0.0269
      4 C         141.8087  141.9270  165.4671 C.ar    1  UNL1       -0.0194
      5 C         141.6658  142.1279  163.9876 C.ar    1  UNL1       -0.0026
      6 C         140.5626  142.9911  163.4511 C.ar    1  UNL1        0.0189
      7 C         139.6024  143.6533  164.3942 C.ar    1  UNL1        0.0016
      8 C         139.7453  143.4524  165.8737 C.ar    1  UNL1        0.0026
      9 C         140.8485  142.5892  166.4102 C.ar    1  UNL1        0.0307
     10 C         140.9915  142.3882  167.8898 C.2     1  UNL1        0.1726
     11 O         140.0312  143.0504  168.8329 O.2     1  UNL1       -0.2914
     12 C         140.4197  143.1921  161.9715 C.ar    1  UNL1        0.1005
     13 C         139.0563  143.2191  161.3465 C.ar    1  UNL1        0.1194
     14 N         138.9133  143.4201  159.8670 N.ar    1  UNL1       -0.2258
     15 C         140.1337  143.5941  159.0123 C.ar    1  UNL1        0.1547
     16 C         141.4970  143.5671  159.6372 C.ar    1  UNL1        0.1332
     17 N         141.6400  143.3661  161.1168 N.ar    1  UNL1       -0.2393
     18 N         139.9906  143.7951  157.5327 N.am    1  UNL1       -0.2521
     19 C         139.9715  145.1824  156.9627 C.2     1  UNL1        0.3093
     20 O         140.0955  146.3688  157.8722 O.2     1  UNL1       -0.2521
     21 N         139.8285  145.3834  155.4831 N.am    1  UNL1       -0.2680
     22 H         139.9093  143.0165  156.9358 H       1  UNL1        0.1579
     23 H         139.7472  144.6048  154.8862 H       1  UNL1        0.1564
     24 C         139.8094  146.7707  154.9131 C.ar    1  UNL1        0.0540
     25 C         140.6322  147.0952  153.7016 C.ar    1  UNL1        0.0172
     26 C         140.6131  148.4825  153.1316 C.ar    1  UNL1        0.0332
     27 C         139.7712  149.5454  153.7730 C.ar    1  UNL1        0.1675
     28 F         139.7521  150.9327  153.2029 F       1  UNL1       -0.2018
     29 C         138.9483  149.2210  154.9845 C.ar    1  UNL1        0.1686
     30 F         138.1064  150.2838  155.6259 F       1  UNL1       -0.2018
     31 C         138.9674  147.8336  155.5545 C.ar    1  UNL1        0.0467
     32 C         141.4384  141.9371  169.7106 C.3     1  UNL1        0.0492
     33 O         141.9530  142.3502  172.2235 O.co2   1  UNL1       -0.5492
     34 C         142.2409  142.6224  170.7768 C.2     1  UNL1        0.0508
     35 O         143.3311  143.5797  170.3961 O.co2   1  UNL1       -0.5492
     36 C         142.9699  140.8049  169.4088 C.3     1  UNL1        0.1109
     37 C         142.6000  139.4278  169.8743 C.3     1  UNL1        0.3982
     38 F         142.2301  138.0506  170.3398 F       1  UNL1       -0.1700
     39 F         141.6835  139.2759  168.6966 F       1  UNL1       -0.1700
     40 F         143.5166  139.5797  171.0519 F       1  UNL1       -0.1700
@<TRIPOS>UNITY_ATOM_ATTR
33 1
charge -1
@<TRIPOS>BOND
     1    33    34   ar
     2    34    35   ar
     3    34    32    1
     4     1    32    1
     5     1    36    1
     6    36    37    1
     7    37    38    1
     8    37    39    1
     9    37    40    1
    10     1     2    1
    11     2     3    1
    12     3     4    1
    13     4     5   ar
    14     5     6   ar
    15     6    12    1
    16    12    13   ar
    17    13    14   ar
    18    14    15   ar
    19    15    18    1
    20    18    19   am
    21    19    20    2
    22    19    21   am
    23    21    24    1
    24    24    25   ar
    25    25    26   ar
    26    26    27   ar
    27    27    28    1
    28    27    29   ar
    29    29    30    1
    30    29    31   ar
    31    15    16   ar
    32    16    17   ar
    33     6     7   ar
    34     7     8   ar
    35     8     9   ar
    36     9    10    1
    37    10    11    2
    38    10     1    1
    39     9     4   ar
    40    17    12   ar
    41    31    24   ar
    42    18    22    1
    43    21    23    1
@<TRIPOS>MOLECULE
*****
 40 43 0 0 0
SMALL
GASTEIGER

@<TRIPOS>ATOM
      1 C         141.4757  140.9096  168.5755 C.3     1  UNL1        0.0692
      2 C         142.1730  139.6243  168.2415 C.3     1  UNL1        0.0126
      3 C         142.6052  139.3499  166.8316 C.3     1  UNL1        0.0269
      4 C         142.3402  140.3609  165.7556 C.ar    1  UNL1       -0.0194
      5 C         142.7724  140.0865  164.3458 C.ar    1  UNL1       -0.0026
      6 C         142.5073  141.0974  163.2699 C.ar    1  UNL1        0.0189
      7 C         141.8100  142.3828  163.6038 C.ar    1  UNL1        0.0016
      8 C         141.3778  142.6572  165.0137 C.ar    1  UNL1        0.0026
      9 C         141.6429  141.6463  166.0896 C.ar    1  UNL1        0.0307
     10 C         141.2106  141.9206  167.4996 C.2     1  UNL1        0.1726
     11 O         140.5133  143.2060  167.8336 O.2     1  UNL1       -0.2914
     12 C         142.9396  140.8231  161.8599 C.ar    1  UNL1        0.1005
     13 C         143.9087  139.7142  161.5749 C.ar    1  UNL1        0.1194
     14 N         144.3410  139.4398  160.1650 N.ar    1  UNL1       -0.2258
     15 C         143.8041  140.2743  159.0400 C.ar    1  UNL1        0.1547
     16 C         142.8349  141.3831  159.3250 C.ar    1  UNL1        0.1332
     17 N         142.4027  141.6575  160.7350 N.ar    1  UNL1       -0.2393
     18 N         144.2363  139.9999  157.6301 N.am    1  UNL1       -0.2521
     19 C         145.2233  140.9077  156.9581 C.2     1  UNL1        0.3093
     20 O         145.7781  142.0900  157.6960 O.2     1  UNL1       -0.2521
     21 N         145.6556  140.6333  155.5482 N.am    1  UNL1       -0.2680
     22 H         143.8722  139.2239  157.1458 H       1  UNL1        0.1579
     23 H         145.2915  139.8574  155.0639 H       1  UNL1        0.1564
     24 C         146.6426  141.5412  154.8762 C.ar    1  UNL1        0.0540
     25 C         146.1630  142.6004  153.9286 C.ar    1  UNL1        0.0172
     26 C         147.1500  143.5083  153.2566 C.ar    1  UNL1        0.0332
     27 C         148.6166  143.3569  153.5322 C.ar    1  UNL1        0.1675
     28 F         149.6036  144.2647  152.8601 F       1  UNL1       -0.2018
     29 C         149.0963  142.2976  154.4798 C.ar    1  UNL1        0.1686
     30 F         150.5630  142.1463  154.7553 F       1  UNL1       -0.2018
     31 C         148.1093  141.3898  155.1518 C.ar    1  UNL1        0.0467
     32 C         140.7874  141.9720  169.3802 C.3     1  UNL1        0.0492
     33 O         138.6555  140.8020  170.2944 O.co2   1  UNL1       -0.5492
     34 C         139.9101  141.5881  170.5348 C.2     1  UNL1        0.0508
     35 O         140.2876  141.9904  171.9298 O.co2   1  UNL1       -0.5492
     36 C         141.5017  140.2676  169.9309 C.3     1  UNL1        0.1109
     37 C         142.8006  139.7910  170.5103 C.3     1  UNL1        0.3982
     38 F         144.0995  139.3143  171.0897 F       1  UNL1       -0.1700
     39 F         143.3439  141.1874  170.4412 F       1  UNL1       -0.1700
     40 F         142.2573  138.3946  170.5794 F       1  UNL1       -0.1700
@<TRIPOS>UNITY_ATOM_ATTR
33 1
charge -1
@<TRIPOS>BOND
     1    33    34   ar
     2    34    35   ar
     3    34    32    1
     4     1    32    1
     5     1    36    1
     6    36    37    1
     7    37    38    1
     8    37    39    1
     9    37    40    1
    10     1     2    1
    11     2     3    1
    12     3     4    1
    13     4     5   ar
    14     5     6   ar
    15     6    12    1
    16    12    13   ar
    17    13    14   ar
    18    14    15   ar
    19    15    18    1
    20    18    19   am
    21    19    20    2
    22    19    21   am
    23    21    24    1
    24    24    25   ar
    25    25    26   ar
    26    26    27   ar
    27    27    28    1
    28    27    29   ar
    29    29    30    1
    30    29    31   ar
    31    15    16   ar
    32    16    17   ar
    33     6     7   ar
    34     7     8   ar
    35     8     9   ar
    36     9    10    1
    37    10    11    2
    38    10     1    1
    39     9     4   ar
    40    17    12   ar
    41    31    24   ar
    42    18    22    1
    43    21    23    1
@<TRIPOS>MOLECULE
*****
 40 43 0 0 0
SMALL
GASTEIGER

@<TRIPOS>ATOM
      1 C         140.5609  141.3647  168.4002 C.3     1  UNL1        0.0692
      2 C         141.4482  142.2099  167.5351 C.3     1  UNL1        0.0126
      3 C         141.3403  142.1252  166.0414 C.3     1  UNL1        0.0269
      4 C         140.3451  141.1954  165.4128 C.ar    1  UNL1       -0.0194
      5 C         140.2373  141.1108  163.9191 C.ar    1  UNL1       -0.0026
      6 C         139.2422  140.1810  163.2905 C.ar    1  UNL1        0.0189
      7 C         138.3548  139.3359  164.1556 C.ar    1  UNL1        0.0016
      8 C         138.4627  139.4205  165.6493 C.ar    1  UNL1        0.0026
      9 C         139.4578  140.3503  166.2779 C.ar    1  UNL1        0.0307
     10 C         139.5657  140.4350  167.7716 C.2     1  UNL1        0.1726
     11 O         138.6784  139.5898  168.6368 O.2     1  UNL1       -0.2914
     12 C         139.1343  140.0963  161.7967 C.ar    1  UNL1        0.1005
     13 C         137.8858  139.5566  161.1644 C.ar    1  UNL1        0.1194
     14 N         137.7779  139.4719  159.6707 N.ar    1  UNL1       -0.2258
     15 C         138.9185  139.9270  158.8093 C.ar    1  UNL1        0.1547
     16 C         140.1670  140.4668  159.4416 C.ar    1  UNL1        0.1332
     17 N         140.2748  140.5514  160.9354 N.ar    1  UNL1       -0.2393
     18 N         138.8105  139.8423  157.3156 N.am    1  UNL1       -0.2521
     19 C         139.4658  138.7116  156.5792 C.2     1  UNL1        0.3093
     20 O         140.2290  137.6657  157.3365 O.2     1  UNL1       -0.2521
     21 N         139.3579  138.6270  155.0855 N.am    1  UNL1       -0.2680
     22 H         138.3096  140.5288  156.8185 H       1  UNL1        0.1579
     23 H         138.8570  139.3135  154.5885 H       1  UNL1        0.1564
     24 C         140.0131  137.4963  154.3491 C.ar    1  UNL1        0.0540
     25 C         139.2880  136.8103  153.2294 C.ar    1  UNL1        0.0172
     26 C         139.9433  135.6797  152.4930 C.ar    1  UNL1        0.0332
     27 C         141.3236  135.2350  152.8763 C.ar    1  UNL1        0.1675
     28 F         141.9788  134.1044  152.1399 F       1  UNL1       -0.2018
     29 C         142.0488  135.9210  153.9960 C.ar    1  UNL1        0.1686
     30 F         143.4291  135.4763  154.3792 F       1  UNL1       -0.2018
     31 C         141.3935  137.0516  154.7324 C.ar    1  UNL1        0.0467
     32 C         139.9449  140.7709  169.6322 C.3     1  UNL1        0.0492
     33 O         141.7688  139.0313  170.2627 O.co2   1  UNL1       -0.5492
     34 C         140.8144  140.1164  170.6647 C.2     1  UNL1        0.0508
     35 O         140.7293  140.5472  172.0990 O.co2   1  UNL1       -0.5492
     36 C         141.3421  142.0883  169.4567 C.3     1  UNL1        0.1109
     37 C         141.0063  143.5102  169.7962 C.3     1  UNL1        0.3982
     38 F         140.6703  144.9322  170.1356 F       1  UNL1       -0.1700
     39 F         142.3787  143.6970  170.3718 F       1  UNL1       -0.1700
     40 F         139.6338  143.3234  169.2205 F       1  UNL1       -0.1700
@<TRIPOS>UNITY_ATOM_ATTR
33 1
charge -1
@<TRIPOS>BOND
     1    33    34   ar
     2    34    35   ar
     3    34    32    1
     4     1    32    1
     5     1    36    1
     6    36    37    1
     7    37    38    1
     8    37    39    1
     9    37    40    1
    10     1     2    1
    11     2     3    1
    12     3     4    1
    13     4     5   ar
    14     5     6   ar
    15     6    12    1
    16    12    13   ar
    17    13    14   ar
    18    14    15   ar
    19    15    18    1
    20    18    19   am
    21    19    20    2
    22    19    21   am
    23    21    24    1
    24    24    25   ar
    25    25    26   ar
    26    26    27   ar
    27    27    28    1
    28    27    29   ar
    29    29    30    1
    30    29    31   ar
    31    15    16   ar
    32    16    17   ar
    33     6     7   ar
    34     7     8   ar
    35     8     9   ar
    36     9    10    1
    37    10    11    2
    38    10     1    1
    39     9     4   ar
    40    17    12   ar
    41    31    24   ar
    42    18    22    1
    43    21    23    1
@<TRIPOS>MOLECULE
*****
 40 43 0 0 0
SMALL
GASTEIGER

@<TRIPOS>ATOM
      1 C         142.0038  141.7324  168.7798 C.3     1  UNL1        0.0692
      2 C         143.0656  142.5303  168.0827 C.3     1  UNL1        0.0126
      3 C         143.3618  142.2801  166.6337 C.3     1  UNL1        0.0269
      4 C         142.5962  141.2320  165.8817 C.ar    1  UNL1       -0.0194
      5 C         142.8924  140.9819  164.4327 C.ar    1  UNL1       -0.0026
      6 C         142.1267  139.9338  163.6808 C.ar    1  UNL1        0.0189
      7 C         141.0649  139.1360  164.3779 C.ar    1  UNL1        0.0016
      8 C         140.7688  139.3861  165.8269 C.ar    1  UNL1        0.0026
      9 C         141.5344  140.4342  166.5788 C.ar    1  UNL1        0.0307
     10 C         141.2382  140.6844  168.0279 C.2     1  UNL1        0.1726
     11 O         140.1764  139.8865  168.7250 O.2     1  UNL1       -0.2914
     12 C         142.4229  139.6836  162.2317 C.ar    1  UNL1        0.1005
     13 C         143.7979  139.2577  161.8100 C.ar    1  UNL1        0.1194
     14 N         144.0941  139.0074  160.3610 N.ar    1  UNL1       -0.2258
     15 C         143.0153  139.1832  159.3337 C.ar    1  UNL1        0.1547
     16 C         141.6403  139.6092  159.7554 C.ar    1  UNL1        0.1332
     17 N         141.3441  139.8594  161.2045 N.ar    1  UNL1       -0.2393
     18 N         143.3115  138.9330  157.8847 N.am    1  UNL1       -0.2521
     19 C         143.0439  137.5837  157.2866 C.2     1  UNL1        0.3093
     20 O         142.4802  136.4845  158.1375 O.2     1  UNL1       -0.2521
     21 N         143.3401  137.3335  155.8376 N.am    1  UNL1       -0.2680
     22 H         143.6815  139.6544  157.3262 H       1  UNL1        0.1579
     23 H         143.7101  138.0549  155.2791 H       1  UNL1        0.1564
     24 C         143.0726  135.9841  155.2395 C.ar    1  UNL1        0.0540
     25 C         143.7455  134.7675  155.8024 C.ar    1  UNL1        0.0172
     26 C         143.4779  133.4181  155.2044 C.ar    1  UNL1        0.0332
     27 C         142.5375  133.2854  154.0433 C.ar    1  UNL1        0.1675
     28 F         142.2700  131.9361  153.4452 F       1  UNL1       -0.2018
     29 C         141.8646  134.5021  153.4803 C.ar    1  UNL1        0.1686
     30 F         140.9242  134.3695  152.3193 F       1  UNL1       -0.2018
     31 C         142.1321  135.8515  154.0784 C.ar    1  UNL1        0.0467
     32 C         141.0988  141.2390  169.8694 C.3     1  UNL1        0.0492
     33 O         139.6047  143.3516  170.1040 O.co2   1  UNL1       -0.5492
     34 C         140.3610  142.2190  170.7328 C.2     1  UNL1        0.0508
     35 O         140.3795  142.0664  172.2250 O.co2   1  UNL1       -0.5492
     36 C         142.4552  142.6091  169.9101 C.3     1  UNL1        0.1109
     37 C         143.9020  142.6388  170.3049 C.3     1  UNL1        0.3982
     38 F         145.3488  142.6685  170.6996 F       1  UNL1       -0.1700
     39 F         144.0822  141.2576  169.7483 F       1  UNL1       -0.1700
     40 F         143.7217  144.0200  170.8615 F       1  UNL1       -0.1700
@<TRIPOS>UNITY_ATOM_ATTR
33 1
charge -1
@<TRIPOS>BOND
     1    33    34   ar
     2    34    35   ar
     3    34    32    1
     4     1    32    1
     5     1    36    1
     6    36    37    1
     7    37    38    1
     8    37    39    1
     9    37    40    1
    10     1     2    1
    11     2     3    1
    12     3     4    1
    13     4     5   ar
    14     5     6   ar
    15     6    12    1
    16    12    13   ar
    17    13    14   ar
    18    14    15   ar
    19    15    18    1
    20    18    19   am
    21    19    20    2
    22    19    21   am
    23    21    24    1
    24    24    25   ar
    25    25    26   ar
    26    26    27   ar
    27    27    28    1
    28    27    29   ar
    29    29    30    1
    30    29    31   ar
    31    15    16   ar
    32    16    17   ar
    33     6     7   ar
    34     7     8   ar
    35     8     9   ar
    36     9    10    1
    37    10    11    2
    38    10     1    1
    39     9     4   ar
    40    17    12   ar
    41    31    24   ar
    42    18    22    1
    43    21    23    1
@<TRIPOS>MOLECULE
*****
 40 43 0 0 0
SMALL
GASTEIGER

@<TRIPOS>ATOM
      1 C         141.6301  141.5086  167.9118 C.3     1  UNL1        0.0692
      2 C         142.6595  140.4349  167.7178 C.3     1  UNL1        0.0126
      3 C         143.0029  139.9662  166.3349 C.3     1  UNL1        0.0269
      4 C         142.3170  140.5713  165.1460 C.ar    1  UNL1       -0.0194
      5 C         142.6604  140.1026  163.7631 C.ar    1  UNL1       -0.0026
      6 C         141.9745  140.7076  162.5743 C.ar    1  UNL1        0.0189
      7 C         140.9451  141.7813  162.7683 C.ar    1  UNL1        0.0016
      8 C         140.6017  142.2500  164.1512 C.ar    1  UNL1        0.0026
      9 C         141.2876  141.6450  165.3400 C.ar    1  UNL1        0.0307
     10 C         140.9442  142.1136  166.7230 C.2     1  UNL1        0.1726
     11 O         139.9149  143.1873  166.9170 O.2     1  UNL1       -0.2914
     12 C         142.3179  140.2390  161.1913 C.ar    1  UNL1        0.1005
     13 C         143.7006  139.7420  160.8896 C.ar    1  UNL1        0.1194
     14 N         144.0440  139.2733  159.5068 N.ar    1  UNL1       -0.2258
     15 C         143.0047  139.3017  158.4255 C.ar    1  UNL1        0.1547
     16 C         141.6219  139.7987  158.7272 C.ar    1  UNL1        0.1332
     17 N         141.2785  140.2673  160.1102 N.ar    1  UNL1       -0.2393
     18 N         143.3481  138.8330  157.0426 N.am    1  UNL1       -0.2521
     19 C         143.0760  137.4131  156.6427 C.2     1  UNL1        0.3093
     20 O         142.4605  136.4619  157.6257 O.2     1  UNL1       -0.2521
     21 N         143.4195  136.9445  155.2598 N.am    1  UNL1       -0.2680
     22 H         143.7521  139.4574  156.3974 H       1  UNL1        0.1579
     23 H         143.8234  137.5688  154.6147 H       1  UNL1        0.1564
     24 C         143.1474  135.5246  154.8599 C.ar    1  UNL1        0.0540
     25 C         142.2105  135.2312  153.7259 C.ar    1  UNL1        0.0172
     26 C         141.9385  133.8113  153.3260 C.ar    1  UNL1        0.0332
     27 C         142.6032  132.6849  154.0601 C.ar    1  UNL1        0.1675
     28 F         142.3312  131.2650  153.6602 F       1  UNL1       -0.2018
     29 C         143.5402  132.9782  155.1943 C.ar    1  UNL1        0.1686
     30 F         144.2050  131.8518  155.9284 F       1  UNL1       -0.2018
     31 C         143.8122  134.3981  155.5942 C.ar    1  UNL1        0.0467
     32 C         140.7306  142.4906  168.6020 C.3     1  UNL1        0.0492
     33 O         139.0750  140.8054  169.6833 O.co2   1  UNL1       -0.5492
     34 C         139.9018  142.0537  169.7735 C.2     1  UNL1        0.0508
     35 O         139.8999  142.8651  171.0351 O.co2   1  UNL1       -0.5492
     36 C         142.0036  141.2446  169.3404 C.3     1  UNL1        0.1109
     37 C         143.3633  141.6292  169.8436 C.3     1  UNL1        0.3982
     38 F         144.7231  142.0138  170.3469 F       1  UNL1       -0.1700
     39 F         143.3297  142.8632  168.9914 F       1  UNL1       -0.1700
     40 F         143.3969  140.3952  170.6958 F       1  UNL1       -0.1700
@<TRIPOS>UNITY_ATOM_ATTR
33 1
charge -1
@<TRIPOS>BOND
     1    33    34   ar
     2    34    35   ar
     3    34    32    1
     4     1    32    1
     5     1    36    1
     6    36    37    1
     7    37    38    1
     8    37    39    1
     9    37    40    1
    10     1     2    1
    11     2     3    1
    12     3     4    1
    13     4     5   ar
    14     5     6   ar
    15     6    12    1
    16    12    13   ar
    17    13    14   ar
    18    14    15   ar
    19    15    18    1
    20    18    19   am
    21    19    20    2
    22    19    21   am
    23    21    24    1
    24    24    25   ar
    25    25    26   ar
    26    26    27   ar
    27    27    28    1
    28    27    29   ar
    29    29    30    1
    30    29    31   ar
    31    15    16   ar
    32    16    17   ar
    33     6     7   ar
    34     7     8   ar
    35     8     9   ar
    36     9    10    1
    37    10    11    2
    38    10     1    1
    39     9     4   ar
    40    17    12   ar
    41    31    24   ar
    42    18    22    1
    43    21    23    1
@<TRIPOS>MOLECULE
*****
 40 43 0 0 0
SMALL
GASTEIGER

@<TRIPOS>ATOM
      1 C         140.8828  141.2466  168.2316 C.3     1  UNL1        0.0692
      2 C         141.6174  142.4633  167.7520 C.3     1  UNL1        0.0126
      3 C         141.5519  142.8576  166.3062 C.3     1  UNL1        0.0269
      4 C         140.7518  142.0351  165.3400 C.ar    1  UNL1       -0.0194
      5 C         140.6863  142.4293  163.8943 C.ar    1  UNL1       -0.0026
      6 C         139.8863  141.6068  162.9282 C.ar    1  UNL1        0.0189
      7 C         139.1518  140.3901  163.4078 C.ar    1  UNL1        0.0016
      8 C         139.2173  139.9958  164.8536 C.ar    1  UNL1        0.0026
      9 C         140.0173  140.8183  165.8197 C.ar    1  UNL1        0.0307
     10 C         140.0828  140.4241  167.2655 C.2     1  UNL1        0.1726
     11 O         139.3483  139.2074  167.7452 O.2     1  UNL1       -0.2914
     12 C         139.8207  142.0010  161.4823 C.ar    1  UNL1        0.1005
     13 C         141.0754  142.3712  160.7483 C.ar    1  UNL1        0.1194
     14 N         141.0099  142.7654  159.3026 N.ar    1  UNL1       -0.2258
     15 C         139.6897  142.7894  158.5907 C.ar    1  UNL1        0.1547
     16 C         138.4351  142.4192  159.3248 C.ar    1  UNL1        0.1332
     17 N         138.5006  142.0250  160.7706 N.ar    1  UNL1       -0.2393
     18 N         139.6243  143.1836  157.1450 N.am    1  UNL1       -0.2521
     19 C         139.6878  144.6316  156.7588 C.2     1  UNL1        0.3093
     20 O         139.8168  145.6855  157.8183 O.2     1  UNL1       -0.2521
     21 N         139.6223  145.0258  155.3130 N.am    1  UNL1       -0.2680
     22 H         139.5396  142.4919  156.4495 H       1  UNL1        0.1579
     23 H         139.5376  144.3342  154.6176 H       1  UNL1        0.1564
     24 C         139.6858  146.4739  154.9268 C.ar    1  UNL1        0.0540
     25 C         140.5819  146.9128  153.8068 C.ar    1  UNL1        0.0172
     26 C         140.6454  148.3608  153.4206 C.ar    1  UNL1        0.0332
     27 C         139.8129  149.3700  154.1544 C.ar    1  UNL1        0.1675
     28 F         139.8765  150.8180  153.7682 F       1  UNL1       -0.2018
     29 C         138.9168  148.9311  155.2745 C.ar    1  UNL1        0.1686
     30 F         138.0843  149.9402  156.0083 F       1  UNL1       -0.2018
     31 C         138.8533  147.4830  155.6607 C.ar    1  UNL1        0.0467
     32 C         140.3635  140.1879  169.1586 C.3     1  UNL1        0.0492
     33 O         138.1917  140.9186  170.3830 O.co2   1  UNL1       -0.5492
     34 C         139.6522  140.5787  170.4202 C.2     1  UNL1        0.0508
     35 O         140.4015  140.6295  171.7187 O.co2   1  UNL1       -0.5492
     36 C         141.5025  141.7014  169.5197 C.3     1  UNL1        0.1109
     37 C         142.9524  142.0837  169.5607 C.3     1  UNL1        0.3982
     38 F         144.4024  142.4659  169.6016 F       1  UNL1       -0.1700
     39 F         142.5889  143.3952  170.1912 F       1  UNL1       -0.1700
     40 F         143.3159  140.7721  168.9301 F       1  UNL1       -0.1700
@<TRIPOS>UNITY_ATOM_ATTR
33 1
charge -1
@<TRIPOS>BOND
     1    33    34   ar
     2    34    35   ar
     3    34    32    1
     4     1    32    1
     5     1    36    1
     6    36    37    1
     7    37    38    1
     8    37    39    1
     9    37    40    1
    10     1     2    1
    11     2     3    1
    12     3     4    1
    13     4     5   ar
    14     5     6   ar
    15     6    12    1
    16    12    13   ar
    17    13    14   ar
    18    14    15   ar
    19    15    18    1
    20    18    19   am
    21    19    20    2
    22    19    21   am
    23    21    24    1
    24    24    25   ar
    25    25    26   ar
    26    26    27   ar
    27    27    28    1
    28    27    29   ar
    29    29    30    1
    30    29    31   ar
    31    15    16   ar
    32    16    17   ar
    33     6     7   ar
    34     7     8   ar
    35     8     9   ar
    36     9    10    1
    37    10    11    2
    38    10     1    1
    39     9     4   ar
    40    17    12   ar
    41    31    24   ar
    42    18    22    1
    43    21    23    1
@<TRIPOS>MOLECULE
*****
 40 43 0 0 0
SMALL
GASTEIGER

@<TRIPOS>ATOM
      1 C         140.5210  141.3930  168.3557 C.3     1  UNL1        0.0692
      2 C         141.3387  142.4911  167.7428 C.3     1  UNL1        0.0126
      3 C         141.2587  142.7520  166.2679 C.3     1  UNL1        0.0269
      4 C         140.3609  141.9148  165.4058 C.ar    1  UNL1       -0.0194
      5 C         140.2808  142.1757  163.9308 C.ar    1  UNL1       -0.0026
      6 C         139.3830  141.3386  163.0688 C.ar    1  UNL1        0.0189
      7 C         138.5653  140.2406  163.6817 C.ar    1  UNL1        0.0016
      8 C         138.6454  139.9797  165.1566 C.ar    1  UNL1        0.0026
      9 C         139.5431  140.8168  166.0187 C.ar    1  UNL1        0.0307
     10 C         139.6232  140.5559  167.4937 C.2     1  UNL1        0.1726
     11 O         138.8055  139.4579  168.1066 O.2     1  UNL1       -0.2914
     12 C         139.3029  141.5995  161.5938 C.ar    1  UNL1        0.1005
     13 C         138.2232  142.4853  161.0464 C.ar    1  UNL1        0.1194
     14 N         138.1431  142.7462  159.5715 N.ar    1  UNL1       -0.2258
     15 C         139.1427  142.1213  158.6438 C.ar    1  UNL1        0.1547
     16 C         140.2224  141.2356  159.1913 C.ar    1  UNL1        0.1332
     17 N         140.3025  140.9747  160.6663 N.ar    1  UNL1       -0.2393
     18 N         139.0626  142.3822  157.1689 N.am    1  UNL1       -0.2521
     19 C         139.4459  143.7258  156.6230 C.2     1  UNL1        0.3093
     20 O         139.9093  144.8084  157.5520 O.2     1  UNL1       -0.2521
     21 N         139.3657  143.9867  155.1481 N.am    1  UNL1       -0.2680
     22 H         138.7585  141.6717  156.5591 H       1  UNL1        0.1579
     23 H         139.0616  143.2761  154.5383 H       1  UNL1        0.1564
     24 C         139.7490  145.3302  154.6022 C.ar    1  UNL1        0.0540
     25 C         139.0265  146.5611  155.0635 C.ar    1  UNL1        0.0172
     26 C         139.4098  147.9046  154.5176 C.ar    1  UNL1        0.0332
     27 C         140.5155  148.0173  153.5104 C.ar    1  UNL1        0.1675
     28 F         140.8988  149.3608  152.9645 F       1  UNL1       -0.2018
     29 C         141.2381  146.7864  153.0490 C.ar    1  UNL1        0.1686
     30 F         142.3439  146.8990  152.0418 F       1  UNL1       -0.2018
     31 C         140.8548  145.4428  153.5949 C.ar    1  UNL1        0.0467
     32 C         139.9457  140.4750  169.3931 C.3     1  UNL1        0.0492
     33 O         141.9756  139.0046  170.0768 O.co2   1  UNL1       -0.5492
     34 C         140.8312  139.8967  170.4569 C.2     1  UNL1        0.0508
     35 O         140.5721  140.2105  171.9007 O.co2   1  UNL1       -0.5492
     36 C         141.2190  141.9113  169.5781 C.3     1  UNL1        0.1109
     37 C         141.1132  143.3622  169.9437 C.3     1  UNL1        0.3982
     38 F         141.0075  144.8132  170.3094 F       1  UNL1       -0.1700
     39 F         139.6247  143.2974  169.7705 F       1  UNL1       -0.1700
     40 F         142.6018  143.4270  170.1170 F       1  UNL1       -0.1700
@<TRIPOS>UNITY_ATOM_ATTR
33 1
charge -1
@<TRIPOS>BOND
     1    33    34   ar
     2    34    35   ar
     3    34    32    1
     4     1    32    1
     5     1    36    1
     6    36    37    1
     7    37    38    1
     8    37    39    1
     9    37    40    1
    10     1     2    1
    11     2     3    1
    12     3     4    1
    13     4     5   ar
    14     5     6   ar
    15     6    12    1
    16    12    13   ar
    17    13    14   ar
    18    14    15   ar
    19    15    18    1
    20    18    19   am
    21    19    20    2
    22    19    21   am
    23    21    24    1
    24    24    25   ar
    25    25    26   ar
    26    26    27   ar
    27    27    28    1
    28    27    29   ar
    29    29    30    1
    30    29    31   ar
    31    15    16   ar
    32    16    17   ar
    33     6     7   ar
    34     7     8   ar
    35     8     9   ar
    36     9    10    1
    37    10    11    2
    38    10     1    1
    39     9     4   ar
    40    17    12   ar
    41    31    24   ar
    42    18    22    1
    43    21    23    1
