@<TRIPOS>MOLECULE
*****
 28 31 0 0 0
SMALL
GASTEIGER

@<TRIPOS>ATOM
      1 C         144.5925  141.3792  161.3994 C.3     1  UNL1        0.1205
      2 N         143.4465  142.0213  162.1234 N.am    1  UNL1       -0.2494
      3 C         142.7560  143.1341  161.3920 C.2     1  UNL1        0.2559
      4 O         143.3029  143.4576  160.0333 O.2     1  UNL1       -0.2695
      5 C         141.5909  143.9662  161.8396 C.ar    1  UNL1        0.0906
      6 C         141.2081  144.9774  160.8000 C.ar    1  UNL1        0.0077
      7 C         140.0629  145.9133  161.0500 C.ar    1  UNL1        0.0027
      8 C         139.3006  145.8381  162.3396 C.ar    1  UNL1        0.0328
      9 C         139.6834  144.8269  163.3793 C.ar    1  UNL1        0.1745
     10 F         138.9211  144.7517  164.6689 F       1  UNL1       -0.2009
     11 C         140.8286  143.8910  163.1293 C.ar    1  UNL1        0.1769
     12 O         141.0430  142.9651  164.2898 O.3     1  UNL1       -0.4497
     13 C         142.0727  141.8858  164.4474 C.ar    1  UNL1        0.1632
     14 C         141.9399  141.1903  165.7697 C.ar    1  UNL1        0.0728
     15 C         142.8766  140.0749  166.1280 C.ar    1  UNL1        0.1316
     16 N         143.9461  139.6549  165.1639 N.ar    1  UNL1       -0.2279
     17 C         144.0791  140.3504  163.8415 C.ar    1  UNL1        0.1182
     18 C         143.1424  141.4658  163.4832 C.ar    1  UNL1        0.1084
     19 N         142.7436  139.3795  167.4503 N.pl3   1  UNL1       -0.3196
     20 H         143.0545  138.4509  167.5516 H       1  UNL1        0.1481
     21 C         142.1369  140.0988  168.6184 C.3     1  UNL1        0.0705
     22 C         140.7017  139.8600  168.9832 C.3     1  UNL1        0.0220
     23 C         140.0950  140.5794  170.1513 C.3     1  UNL1        0.0309
     24 C         140.9236  141.5376  170.9545 C.3     1  UNL1        0.1106
     25 O         140.3168  142.2570  172.1227 O.3     1  UNL1       -0.3845
     26 C         142.3588  141.7764  170.5898 C.3     1  UNL1        0.0309
     27 C         142.9655  141.0571  169.4217 C.3     1  UNL1        0.0220
     28 H         139.3892  141.9906  172.2201 H       1  UNL1        0.2103
@<TRIPOS>BOND
     1     1     2    1
     2     2     3   am
     3     3     4    2
     4     3     5    1
     5     5     6   ar
     6     6     7   ar
     7     7     8   ar
     8     8     9   ar
     9     9    10    1
    10     9    11   ar
    11    11    12    1
    12    12    13    1
    13    13    14   ar
    14    14    15   ar
    15    15    19    1
    16    21    19    1
    17    21    22    1
    18    22    23    1
    19    23    24    1
    20    24    25    1
    21    24    26    1
    22    26    27    1
    23    15    16   ar
    24    16    17   ar
    25    17    18   ar
    26    18     2    1
    27    11     5   ar
    28    18    13   ar
    29    27    21    1
    30    19    20    1
    31    25    28    1
@<TRIPOS>MOLECULE
*****
 28 31 0 0 0
SMALL
GASTEIGER

@<TRIPOS>ATOM
      1 C         138.0863  138.5271  162.0993 C.3     1  UNL1        0.1205
      2 N         138.6781  139.8456  162.5009 N.am    1  UNL1       -0.2494
      3 C         138.8952  140.8276  161.3880 C.2     1  UNL1        0.2559
      4 O         138.4918  140.3612  160.0207 O.2     1  UNL1       -0.2695
      5 C         139.4624  142.2143  161.4616 C.ar    1  UNL1        0.0906
      6 C         139.5070  142.8606  160.1088 C.ar    1  UNL1        0.0077
      7 C         140.0418  144.2542  159.9607 C.ar    1  UNL1        0.0027
      8 C         140.5320  145.0014  161.1655 C.ar    1  UNL1        0.0328
      9 C         140.4874  144.3550  162.5183 C.ar    1  UNL1        0.1745
     10 F         140.9776  145.1022  163.7230 F       1  UNL1       -0.2009
     11 C         139.9526  142.9615  162.6664 C.ar    1  UNL1        0.1769
     12 O         139.9966  142.5065  164.0950 O.3     1  UNL1       -0.4497
     13 C         139.5614  141.1920  164.6719 C.ar    1  UNL1        0.1632
     14 C         139.7780  141.1459  166.1554 C.ar    1  UNL1        0.0728
     15 C         139.4077  139.9156  166.9295 C.ar    1  UNL1        0.1316
     16 N         138.8210  138.7314  166.2201 N.ar    1  UNL1       -0.2279
     17 C         138.6044  138.7775  164.7365 C.ar    1  UNL1        0.1182
     18 C         138.9746  140.0078  163.9624 C.ar    1  UNL1        0.1084
     19 N         139.6243  139.8696  168.4131 N.pl3   1  UNL1       -0.3196
     20 H         139.1418  139.2088  168.9607 H       1  UNL1        0.1481
     21 C         140.5760  140.8301  169.0623 C.3     1  UNL1        0.0705
     22 C         140.0667  142.1209  169.6319 C.3     1  UNL1        0.0220
     23 C         141.0184  143.0815  170.2811 C.3     1  UNL1        0.0309
     24 C         142.4794  142.7513  170.3607 C.3     1  UNL1        0.1106
     25 O         143.4311  143.7120  171.0100 O.3     1  UNL1       -0.3845
     26 C         142.9887  141.4605  169.7911 C.3     1  UNL1        0.0309
     27 C         142.0371  140.5000  169.1419 C.3     1  UNL1        0.0220
     28 H         142.9426  144.4896  171.3224 H       1  UNL1        0.2103
@<TRIPOS>BOND
     1     1     2    1
     2     2     3   am
     3     3     4    2
     4     3     5    1
     5     5     6   ar
     6     6     7   ar
     7     7     8   ar
     8     8     9   ar
     9     9    10    1
    10     9    11   ar
    11    11    12    1
    12    12    13    1
    13    13    14   ar
    14    14    15   ar
    15    15    19    1
    16    21    19    1
    17    21    22    1
    18    22    23    1
    19    23    24    1
    20    24    25    1
    21    24    26    1
    22    26    27    1
    23    15    16   ar
    24    16    17   ar
    25    17    18   ar
    26    18     2    1
    27    11     5   ar
    28    18    13   ar
    29    27    21    1
    30    19    20    1
    31    25    28    1
@<TRIPOS>MOLECULE
*****
 28 31 0 0 0
SMALL
GASTEIGER

@<TRIPOS>ATOM
      1 C         138.4438  139.3227  161.6752 C.3     1  UNL1        0.1205
      2 N         139.5302  140.0967  162.3611 N.am    1  UNL1       -0.2494
      3 C         140.4823  140.8225  161.4574 C.2     1  UNL1        0.2559
      4 O         140.2220  140.6783  159.9872 O.2     1  UNL1       -0.2695
      5 C         141.6603  141.6734  161.8294 C.ar    1  UNL1        0.0906
      6 C         142.3498  142.2168  160.6131 C.ar    1  UNL1        0.0077
      7 C         143.5560  143.0953  160.7645 C.ar    1  UNL1        0.0027
      8 C         144.0728  143.4306  162.1321 C.ar    1  UNL1        0.0328
      9 C         143.3834  142.8873  163.3484 C.ar    1  UNL1        0.1745
     10 F         143.9002  143.2225  164.7161 F       1  UNL1       -0.2009
     11 C         142.1771  142.0087  163.1971 C.ar    1  UNL1        0.1769
     12 O         141.6436  141.5758  164.5305 O.3     1  UNL1       -0.4497
     13 C         140.4615  140.7008  164.8256 C.ar    1  UNL1        0.1632
     14 C         140.2720  140.5153  166.3020 C.ar    1  UNL1        0.0728
     15 C         139.1419  139.6716  166.8129 C.ar    1  UNL1        0.1316
     16 N         138.2014  139.0134  165.8475 N.ar    1  UNL1       -0.2279
     17 C         138.3909  139.1988  164.3711 C.ar    1  UNL1        0.1182
     18 C         139.5210  140.0426  163.8601 C.ar    1  UNL1        0.1084
     19 N         138.9524  139.4862  168.2893 N.pl3   1  UNL1       -0.3196
     20 H         138.2651  138.8654  168.6232 H       1  UNL1        0.1481
     21 C         139.8100  140.2465  169.2569 C.3     1  UNL1        0.0705
     22 C         141.1327  139.6856  169.6879 C.3     1  UNL1        0.0220
     23 C         141.9904  140.4460  170.6555 C.3     1  UNL1        0.0309
     24 C         141.5253  141.7672  171.1921 C.3     1  UNL1        0.1106
     25 O         142.3830  142.5276  172.1598 O.3     1  UNL1       -0.3845
     26 C         140.2026  142.3281  170.7611 C.3     1  UNL1        0.0309
     27 C         139.3449  141.5678  169.7935 C.3     1  UNL1        0.0220
     28 H         143.1972  142.0289  172.3312 H       1  UNL1        0.2103
@<TRIPOS>BOND
     1     1     2    1
     2     2     3   am
     3     3     4    2
     4     3     5    1
     5     5     6   ar
     6     6     7   ar
     7     7     8   ar
     8     8     9   ar
     9     9    10    1
    10     9    11   ar
    11    11    12    1
    12    12    13    1
    13    13    14   ar
    14    14    15   ar
    15    15    19    1
    16    21    19    1
    17    21    22    1
    18    22    23    1
    19    23    24    1
    20    24    25    1
    21    24    26    1
    22    26    27    1
    23    15    16   ar
    24    16    17   ar
    25    17    18   ar
    26    18     2    1
    27    11     5   ar
    28    18    13   ar
    29    27    21    1
    30    19    20    1
    31    25    28    1
@<TRIPOS>MOLECULE
*****
 28 31 0 0 0
SMALL
GASTEIGER

@<TRIPOS>ATOM
      1 C         141.4263  138.4892  161.3934 C.3     1  UNL1        0.1205
      2 N         141.3983  139.8358  162.0535 N.am    1  UNL1       -0.2494
      3 C         140.9849  140.9815  161.1781 C.2     1  UNL1        0.2559
      4 O         140.6541  140.6291  159.7581 O.2     1  UNL1       -0.2695
      5 C         140.8586  142.4330  161.5347 C.ar    1  UNL1        0.0906
      6 C         140.4140  143.2498  160.3578 C.ar    1  UNL1        0.0077
      7 C         140.2253  144.7309  160.5012 C.ar    1  UNL1        0.0027
      8 C         140.4811  145.3953  161.8215 C.ar    1  UNL1        0.0328
      9 C         140.9257  144.5785  162.9984 C.ar    1  UNL1        0.1745
     10 F         141.1815  145.2428  164.3187 F       1  UNL1       -0.2009
     11 C         141.1144  143.0973  162.8550 C.ar    1  UNL1        0.1769
     12 O         141.5598  142.4742  164.1447 O.3     1  UNL1       -0.4497
     13 C         141.8594  141.0329  164.4327 C.ar    1  UNL1        0.1632
     14 C         142.2767  140.8344  165.8597 C.ar    1  UNL1        0.0728
     15 C         142.6222  139.4617  166.3561 C.ar    1  UNL1        0.1316
     16 N         142.5503  138.2876  165.4255 N.ar    1  UNL1       -0.2279
     17 C         142.1330  138.4861  163.9984 C.ar    1  UNL1        0.1182
     18 C         141.7875  139.8587  163.5020 C.ar    1  UNL1        0.1084
     19 N         143.0396  139.2633  167.7831 N.pl3   1  UNL1       -0.3196
     20 H         143.7646  138.6340  168.0010 H       1  UNL1        0.1481
     21 C         142.3523  140.0237  168.8782 C.3     1  UNL1        0.0705
     22 C         143.1025  141.0671  169.6519 C.3     1  UNL1        0.0220
     23 C         142.4151  141.8275  170.7470 C.3     1  UNL1        0.0309
     24 C         140.9776  141.5445  171.0685 C.3     1  UNL1        0.1106
     25 O         140.2903  142.3050  172.1637 O.3     1  UNL1       -0.3845
     26 C         140.2274  140.5012  170.2949 C.3     1  UNL1        0.0309
     27 C         140.9147  139.7408  169.1998 C.3     1  UNL1        0.0220
     28 H         140.9123  142.9358  172.5589 H       1  UNL1        0.2103
@<TRIPOS>BOND
     1     1     2    1
     2     2     3   am
     3     3     4    2
     4     3     5    1
     5     5     6   ar
     6     6     7   ar
     7     7     8   ar
     8     8     9   ar
     9     9    10    1
    10     9    11   ar
    11    11    12    1
    12    12    13    1
    13    13    14   ar
    14    14    15   ar
    15    15    19    1
    16    21    19    1
    17    21    22    1
    18    22    23    1
    19    23    24    1
    20    24    25    1
    21    24    26    1
    22    26    27    1
    23    15    16   ar
    24    16    17   ar
    25    17    18   ar
    26    18     2    1
    27    11     5   ar
    28    18    13   ar
    29    27    21    1
    30    19    20    1
    31    25    28    1
@<TRIPOS>MOLECULE
*****
 28 31 0 0 0
SMALL
GASTEIGER

@<TRIPOS>ATOM
      1 C         138.5776  137.9779  165.7825 C.3     1  UNL1        0.1205
      2 N         139.6351  138.9227  166.2714 N.am    1  UNL1       -0.2494
      3 C         139.3467  139.6035  167.5765 C.2     1  UNL1        0.2559
      4 O         138.0389  139.2494  168.2202 O.2     1  UNL1       -0.2695
      5 C         140.1931  140.5915  168.3232 C.ar    1  UNL1        0.0906
      6 C         139.5305  141.0295  169.5956 C.ar    1  UNL1        0.0077
      7 C         140.2119  142.0188  170.4940 C.ar    1  UNL1        0.0027
      8 C         141.5558  142.5701  170.1198 C.ar    1  UNL1        0.0328
      9 C         142.2183  142.1321  168.8474 C.ar    1  UNL1        0.1745
     10 F         143.5622  142.6834  168.4733 F       1  UNL1       -0.2009
     11 C         141.5370  141.1428  167.9491 C.ar    1  UNL1        0.1769
     12 O         142.3664  140.8422  166.7359 O.3     1  UNL1       -0.4497
     13 C         142.0568  139.9162  165.5972 C.ar    1  UNL1        0.1632
     14 C         143.1610  139.9074  164.5821 C.ar    1  UNL1        0.0728
     15 C         143.0497  139.0445  163.3602 C.ar    1  UNL1        0.1316
     16 N         141.8343  138.1903  163.1535 N.ar    1  UNL1       -0.2279
     17 C         140.7300  138.1990  164.1687 C.ar    1  UNL1        0.1182
     18 C         140.8412  139.0619  165.3905 C.ar    1  UNL1        0.1084
     19 N         144.1540  139.0358  162.3451 N.pl3   1  UNL1       -0.3196
     20 H         144.8536  138.3443  162.3847 H       1  UNL1        0.1481
     21 C         144.1925  140.0808  161.2697 C.3     1  UNL1        0.0705
     22 C         144.5938  141.4868  161.6042 C.3     1  UNL1        0.0220
     23 C         144.6323  142.5318  160.5287 C.3     1  UNL1        0.0309
     24 C         144.2694  142.1706  159.1188 C.3     1  UNL1        0.1106
     25 O         144.3079  143.2157  158.0434 O.3     1  UNL1       -0.3845
     26 C         143.8681  140.7646  158.7844 C.3     1  UNL1        0.0309
     27 C         143.8296  139.7196  159.8598 C.3     1  UNL1        0.0220
     28 H         144.5852  144.0630  158.4256 H       1  UNL1        0.2103
@<TRIPOS>BOND
     1     1     2    1
     2     2     3   am
     3     3     4    2
     4     3     5    1
     5     5     6   ar
     6     6     7   ar
     7     7     8   ar
     8     8     9   ar
     9     9    10    1
    10     9    11   ar
    11    11    12    1
    12    12    13    1
    13    13    14   ar
    14    14    15   ar
    15    15    19    1
    16    21    19    1
    17    21    22    1
    18    22    23    1
    19    23    24    1
    20    24    25    1
    21    24    26    1
    22    26    27    1
    23    15    16   ar
    24    16    17   ar
    25    17    18   ar
    26    18     2    1
    27    11     5   ar
    28    18    13   ar
    29    27    21    1
    30    19    20    1
    31    25    28    1
@<TRIPOS>MOLECULE
*****
 28 31 0 0 0
SMALL
GASTEIGER

@<TRIPOS>ATOM
      1 C         144.4264  142.5977  161.3615 C.3     1  UNL1        0.1205
      2 N         143.3187  141.7707  161.9436 N.am    1  UNL1       -0.2494
      3 C         142.5161  140.9724  160.9595 C.2     1  UNL1        0.2559
      4 O         142.9273  141.1068  159.5232 O.2     1  UNL1       -0.2695
      5 C         141.3566  140.0575  161.2216 C.ar    1  UNL1        0.0906
      6 C         140.8382  139.4520  159.9510 C.ar    1  UNL1        0.0077
      7 C         139.6765  138.5040  159.9915 C.ar    1  UNL1        0.0027
      8 C         139.0333  138.1614  161.3025 C.ar    1  UNL1        0.0328
      9 C         139.5518  138.7669  162.5732 C.ar    1  UNL1        0.1745
     10 F         138.9086  138.4243  163.8843 F       1  UNL1       -0.2009
     11 C         140.7134  139.7149  162.5327 C.ar    1  UNL1        0.1769
     12 O         141.0709  140.2027  163.9054 O.3     1  UNL1       -0.4497
     13 C         142.1597  141.1534  164.3062 C.ar    1  UNL1        0.1632
     14 C         142.1747  141.3756  165.7896 C.ar    1  UNL1        0.0728
     15 C         143.1901  142.2957  166.3998 C.ar    1  UNL1        0.1316
     16 N         144.1905  142.9935  165.5268 N.ar    1  UNL1       -0.2279
     17 C         144.1755  142.7712  164.0434 C.ar    1  UNL1        0.1182
     18 C         143.1601  141.8512  163.4331 C.ar    1  UNL1        0.1084
     19 N         143.2051  142.5178  167.8832 N.pl3   1  UNL1       -0.3196
     20 H         143.8044  143.1943  168.2736 H       1  UNL1        0.1481
     21 C         142.3070  141.7094  168.7718 C.3     1  UNL1        0.0705
     22 C         142.6930  140.3119  169.1565 C.3     1  UNL1        0.0220
     23 C         141.7947  139.5034  170.0452 C.3     1  UNL1        0.0309
     24 C         140.5106  140.0925  170.5490 C.3     1  UNL1        0.1106
     25 O         139.6124  139.2839  171.4377 O.3     1  UNL1       -0.3845
     26 C         140.1246  141.4900  170.1643 C.3     1  UNL1        0.0309
     27 C         141.0227  142.2984  169.2757 C.3     1  UNL1        0.0220
     28 H         140.0067  138.4104  171.5873 H       1  UNL1        0.2103
@<TRIPOS>BOND
     1     1     2    1
     2     2     3   am
     3     3     4    2
     4     3     5    1
     5     5     6   ar
     6     6     7   ar
     7     7     8   ar
     8     8     9   ar
     9     9    10    1
    10     9    11   ar
    11    11    12    1
    12    12    13    1
    13    13    14   ar
    14    14    15   ar
    15    15    19    1
    16    21    19    1
    17    21    22    1
    18    22    23    1
    19    23    24    1
    20    24    25    1
    21    24    26    1
    22    26    27    1
    23    15    16   ar
    24    16    17   ar
    25    17    18   ar
    26    18     2    1
    27    11     5   ar
    28    18    13   ar
    29    27    21    1
    30    19    20    1
    31    25    28    1
@<TRIPOS>MOLECULE
*****
 28 31 0 0 0
SMALL
GASTEIGER

@<TRIPOS>ATOM
      1 C         144.0704  138.3457  161.7787 C.3     1  UNL1        0.1205
      2 N         142.7214  138.7971  162.2544 N.am    1  UNL1       -0.2494
      3 C         141.6836  138.9828  161.1875 C.2     1  UNL1        0.2559
      4 O         142.1320  138.6926  159.7858 O.2     1  UNL1       -0.2695
      5 C         140.2566  139.4204  161.3367 C.ar    1  UNL1        0.0906
      6 C         139.5590  139.4766  160.0100 C.ar    1  UNL1        0.0077
      7 C         138.1197  139.8927  159.9365 C.ar    1  UNL1        0.0027
      8 C         137.3781  140.2526  161.1897 C.ar    1  UNL1        0.0328
      9 C         138.0757  140.1965  162.5164 C.ar    1  UNL1        0.1745
     10 F         137.3341  140.5565  163.7695 F       1  UNL1       -0.2009
     11 C         139.5150  139.7804  162.5899 C.ar    1  UNL1        0.1769
     12 O         140.0172  139.7917  164.0033 O.3     1  UNL1       -0.4497
     13 C         141.3850  139.4458  164.5126 C.ar    1  UNL1        0.1632
     14 C         141.4673  139.5896  166.0034 C.ar    1  UNL1        0.0728
     15 C         142.7530  139.2908  166.7159 C.ar    1  UNL1        0.1316
     16 N         143.9564  138.8482  165.9376 N.ar    1  UNL1       -0.2279
     17 C         143.8742  138.7044  164.4468 C.ar    1  UNL1        0.1182
     18 C         142.5885  139.0031  163.7343 C.ar    1  UNL1        0.1084
     19 N         142.8352  139.4346  168.2067 N.pl3   1  UNL1       -0.3196
     20 H         143.4683  138.8827  168.7203 H       1  UNL1        0.1481
     21 C         141.9528  140.4193  168.9150 C.3     1  UNL1        0.0705
     22 C         142.3417  141.8668  168.9753 C.3     1  UNL1        0.0220
     23 C         141.4592  142.8515  169.6836 C.3     1  UNL1        0.0309
     24 C         140.1881  142.3888  170.3316 C.3     1  UNL1        0.1106
     25 O         139.3057  143.3736  171.0399 O.3     1  UNL1       -0.3845
     26 C         139.7992  140.9413  170.2713 C.3     1  UNL1        0.0309
     27 C         140.6816  139.9566  169.5630 C.3     1  UNL1        0.0220
     28 H         139.6998  144.2583  170.9857 H       1  UNL1        0.2103
@<TRIPOS>BOND
     1     1     2    1
     2     2     3   am
     3     3     4    2
     4     3     5    1
     5     5     6   ar
     6     6     7   ar
     7     7     8   ar
     8     8     9   ar
     9     9    10    1
    10     9    11   ar
    11    11    12    1
    12    12    13    1
    13    13    14   ar
    14    14    15   ar
    15    15    19    1
    16    21    19    1
    17    21    22    1
    18    22    23    1
    19    23    24    1
    20    24    25    1
    21    24    26    1
    22    26    27    1
    23    15    16   ar
    24    16    17   ar
    25    17    18   ar
    26    18     2    1
    27    11     5   ar
    28    18    13   ar
    29    27    21    1
    30    19    20    1
    31    25    28    1
@<TRIPOS>MOLECULE
*****
 28 31 0 0 0
SMALL
GASTEIGER

@<TRIPOS>ATOM
      1 C         137.7539  138.3860  161.7826 C.3     1  UNL1        0.1205
      2 N         138.5651  139.6469  161.7403 N.am    1  UNL1       -0.2494
      3 C         138.4672  140.4416  160.4719 C.2     1  UNL1        0.2559
      4 O         137.5709  139.8701  159.4135 O.2     1  UNL1       -0.2695
      5 C         139.1470  141.7321  160.1218 C.ar    1  UNL1        0.0906
      6 C         138.7740  142.1916  158.7435 C.ar    1  UNL1        0.0077
      7 C         139.3468  143.4658  158.1972 C.ar    1  UNL1        0.0027
      8 C         140.2924  144.2803  159.0292 C.ar    1  UNL1        0.0328
      9 C         140.6654  143.8208  160.4074 C.ar    1  UNL1        0.1745
     10 F         141.6111  144.6354  161.2394 F       1  UNL1       -0.2009
     11 C         140.0927  142.5466  160.9537 C.ar    1  UNL1        0.1769
     12 O         140.5921  142.2719  162.3412 O.3     1  UNL1       -0.4497
     13 C         140.2693  141.1148  163.2395 C.ar    1  UNL1        0.1632
     14 C         140.9856  141.2239  164.5528 C.ar    1  UNL1        0.0728
     15 C         140.7999  140.1648  165.5987 C.ar    1  UNL1        0.1316
     16 N         139.8979  138.9966  165.3313 N.ar    1  UNL1       -0.2279
     17 C         139.1815  138.8875  164.0179 C.ar    1  UNL1        0.1182
     18 C         139.3672  139.9465  162.9720 C.ar    1  UNL1        0.1084
     19 N         141.5163  140.2741  166.9120 N.pl3   1  UNL1       -0.3196
     20 H         142.3986  139.8528  167.0280 H       1  UNL1        0.1481
     21 C         140.8887  141.0251  168.0486 C.3     1  UNL1        0.0705
     22 C         139.8767  140.3495  168.9259 C.3     1  UNL1        0.0220
     23 C         139.2490  141.1006  170.0625 C.3     1  UNL1        0.0309
     24 C         139.6333  142.5271  170.3218 C.3     1  UNL1        0.1106
     25 O         139.0056  143.2782  171.4585 O.3     1  UNL1       -0.3845
     26 C         140.6453  143.2027  169.4446 C.3     1  UNL1        0.0309
     27 C         141.2729  142.4517  168.3080 C.3     1  UNL1        0.0220
     28 H         138.3788  142.7001  171.9210 H       1  UNL1        0.2103
@<TRIPOS>BOND
     1     1     2    1
     2     2     3   am
     3     3     4    2
     4     3     5    1
     5     5     6   ar
     6     6     7   ar
     7     7     8   ar
     8     8     9   ar
     9     9    10    1
    10     9    11   ar
    11    11    12    1
    12    12    13    1
    13    13    14   ar
    14    14    15   ar
    15    15    19    1
    16    21    19    1
    17    21    22    1
    18    22    23    1
    19    23    24    1
    20    24    25    1
    21    24    26    1
    22    26    27    1
    23    15    16   ar
    24    16    17   ar
    25    17    18   ar
    26    18     2    1
    27    11     5   ar
    28    18    13   ar
    29    27    21    1
    30    19    20    1
    31    25    28    1
@<TRIPOS>MOLECULE
*****
 28 31 0 0 0
SMALL
GASTEIGER

@<TRIPOS>ATOM
      1 C         137.4870  141.2995  162.6450 C.3     1  UNL1        0.1205
      2 N         138.7767  140.5371  162.5716 N.am    1  UNL1       -0.2494
      3 C         139.2435  140.1789  161.1918 C.2     1  UNL1        0.2559
      4 O         138.3587  140.6304  160.0678 O.2     1  UNL1       -0.2695
      5 C         140.4779  139.4289  160.7873 C.ar    1  UNL1        0.0906
      6 C         140.5681  139.2851  159.2969 C.ar    1  UNL1        0.0077
      7 C         141.7310  138.5644  158.6820 C.ar    1  UNL1        0.0027
      8 C         142.8037  137.9873  159.5575 C.ar    1  UNL1        0.0328
      9 C         142.7134  138.1310  161.0478 C.ar    1  UNL1        0.1745
     10 F         143.7861  137.5539  161.9233 F       1  UNL1       -0.2009
     11 C         141.5505  138.8518  161.6627 C.ar    1  UNL1        0.1769
     12 O         141.6536  138.8823  163.1589 O.3     1  UNL1       -0.4497
     13 C         140.7096  139.4973  164.1491 C.ar    1  UNL1        0.1632
     14 C         141.1883  139.3017  165.5572 C.ar    1  UNL1        0.0728
     15 C         140.3867  139.8425  166.7038 C.ar    1  UNL1        0.1316
     16 N         139.1064  140.5790  166.4425 N.ar    1  UNL1       -0.2279
     17 C         138.6276  140.7746  165.0344 C.ar    1  UNL1        0.1182
     18 C         139.4293  140.2337  163.8877 C.ar    1  UNL1        0.1084
     19 N         140.8654  139.6468  168.1118 N.pl3   1  UNL1       -0.3196
     20 H         140.7787  138.7662  168.5433 H       1  UNL1        0.1481
     21 C         141.4763  140.7928  168.8624 C.3     1  UNL1        0.0705
     22 C         140.6140  141.9269  169.3316 C.3     1  UNL1        0.0220
     23 C         141.2250  143.0729  170.0822 C.3     1  UNL1        0.0309
     24 C         142.6982  143.0848  170.3636 C.3     1  UNL1        0.1106
     25 O         143.3092  144.2309  171.1142 O.3     1  UNL1       -0.3845
     26 C         143.5606  141.9507  169.8944 C.3     1  UNL1        0.0309
     27 C         142.9497  140.8047  169.1438 C.3     1  UNL1        0.0220
     28 H         142.6187  144.8729  171.3421 H       1  UNL1        0.2103
@<TRIPOS>BOND
     1     1     2    1
     2     2     3   am
     3     3     4    2
     4     3     5    1
     5     5     6   ar
     6     6     7   ar
     7     7     8   ar
     8     8     9   ar
     9     9    10    1
    10     9    11   ar
    11    11    12    1
    12    12    13    1
    13    13    14   ar
    14    14    15   ar
    15    15    19    1
    16    21    19    1
    17    21    22    1
    18    22    23    1
    19    23    24    1
    20    24    25    1
    21    24    26    1
    22    26    27    1
    23    15    16   ar
    24    16    17   ar
    25    17    18   ar
    26    18     2    1
    27    11     5   ar
    28    18    13   ar
    29    27    21    1
    30    19    20    1
    31    25    28    1
