@<TRIPOS>MOLECULE
*****
 25 28 0 0 0
SMALL
GASTEIGER

@<TRIPOS>ATOM
      1 C         141.4796  138.1474  164.9101 C.3     1  UNL1        0.1676
      2 C         140.2162  138.8123  165.3704 C.3     1  UNL1        0.0450
      3 C         140.2174  139.6409  166.6208 C.3     1  UNL1        0.0197
      4 C         141.4819  139.8046  167.4109 C.3     1  UNL1        0.0579
      5 C         142.7453  139.1397  166.9506 C.3     1  UNL1        0.0197
      6 C         142.7441  138.3111  165.7001 C.3     1  UNL1        0.0450
      7 N         141.4831  140.6332  168.6613 N.3     1  UNL1       -0.2698
      8 C         142.0567  140.0754  169.9301 C.3     1  UNL1        0.1046
      9 C         142.0578  140.9040  171.1804 C.3     1  UNL1        0.1594
     10 O         141.4853  142.2903  171.1620 O.3     1  UNL1       -0.3533
     11 C         140.9116  142.8481  169.8932 C.3     1  UNL1        0.1313
     12 C         140.3391  144.2344  169.8748 C.3     1  UNL1        0.0335
     13 C         140.9105  142.0195  168.6429 C.3     1  UNL1        0.1020
     14 O         141.4784  137.3189  163.6597 O.3     1  UNL1       -0.4639
     15 C         138.6169  137.8691  162.3148 C.3     1  UNL1        0.0329
     16 C         139.5500  138.3569  161.2464 C.ar    1  UNL1        0.0047
     17 C         139.1484  138.9368  159.9226 C.ar    1  UNL1        0.0965
     18 N         140.3987  139.2888  159.1724 N.ar    1  UNL1       -0.2271
     19 C         141.5729  138.9265  160.0325 C.ar    1  UNL1        0.1459
     20 N         143.0521  139.0467  159.8141 N.ar    1  UNL1       -0.3213
     21 C         144.0066  138.5909  160.8776 C.ar    1  UNL1        0.1791
     22 N         143.4821  138.0150  162.1594 N.ar    1  UNL1       -0.1912
     23 C         142.0030  137.8948  162.3778 C.ar    1  UNL1        0.2287
     24 C         141.0484  138.3506  161.3144 C.ar    1  UNL1        0.0846
     25 H         143.3963  139.4247  158.9728 H       1  UNL1        0.1689
@<TRIPOS>BOND
     1    15    16    1
     2    16    17   ar
     3    17    18   ar
     4    18    19   ar
     5    19    20   ar
     6    20    21   ar
     7    21    22   ar
     8    22    23   ar
     9    23    14    1
    10     1    14    1
    11     1     2    1
    12     2     3    1
    13     3     4    1
    14     4     7    1
    15     7     8    1
    16     8     9    1
    17     9    10    1
    18    10    11    1
    19    11    12    1
    20    11    13    1
    21     4     5    1
    22     5     6    1
    23    23    24   ar
    24    24    16   ar
    25    24    19    1
    26     6     1    1
    27    13     7    1
    28    20    25    1
@<TRIPOS>MOLECULE
*****
 25 28 0 0 0
SMALL
GASTEIGER

@<TRIPOS>ATOM
      1 C         142.4106  142.0345  165.9756 C.3     1  UNL1        0.1676
      2 C         141.0818  142.7260  166.0535 C.3     1  UNL1        0.0450
      3 C         140.5848  143.5292  164.8883 C.3     1  UNL1        0.0197
      4 C         141.4166  143.6410  163.6451 C.3     1  UNL1        0.0579
      5 C         142.7454  142.9495  163.5671 C.3     1  UNL1        0.0197
      6 C         143.2425  142.1463  164.7324 C.3     1  UNL1        0.0450
      7 N         140.9196  144.4443  162.4798 N.3     1  UNL1       -0.2698
      8 C         139.9840  145.5946  162.7064 C.3     1  UNL1        0.1046
      9 C         139.4870  146.3978  161.5412 C.3     1  UNL1        0.1594
     10 O         139.9257  146.0507  160.1494 O.3     1  UNL1       -0.3533
     11 C         140.8613  144.9004  159.9228 C.3     1  UNL1        0.1313
     12 C         141.3000  144.5534  158.5310 C.3     1  UNL1        0.0335
     13 C         141.3583  144.0972  161.0880 C.3     1  UNL1        0.1020
     14 O         142.9076  141.2312  167.1408 O.3     1  UNL1       -0.4639
     15 C         140.1468  139.6952  167.7054 C.3     1  UNL1        0.0329
     16 C         140.3583  140.4197  169.0017 C.ar    1  UNL1        0.0047
     17 C         139.4521  140.3726  170.1960 C.ar    1  UNL1        0.0965
     18 N         140.0468  141.2423  171.2637 N.ar    1  UNL1       -0.2271
     19 C         141.3206  141.8268  170.7292 C.ar    1  UNL1        0.1459
     20 N         142.3301  142.7564  171.3349 N.ar    1  UNL1       -0.3213
     21 C         143.5321  143.1775  170.5425 C.ar    1  UNL1        0.1791
     22 N         143.7246  142.6691  169.1445 N.ar    1  UNL1       -0.1912
     23 C         142.7151  141.7396  168.5388 C.ar    1  UNL1        0.2287
     24 C         141.5131  141.3185  169.3312 C.ar    1  UNL1        0.0846
     25 H         142.2038  143.0900  172.2525 H       1  UNL1        0.1689
@<TRIPOS>BOND
     1    15    16    1
     2    16    17   ar
     3    17    18   ar
     4    18    19   ar
     5    19    20   ar
     6    20    21   ar
     7    21    22   ar
     8    22    23   ar
     9    23    14    1
    10     1    14    1
    11     1     2    1
    12     2     3    1
    13     3     4    1
    14     4     7    1
    15     7     8    1
    16     8     9    1
    17     9    10    1
    18    10    11    1
    19    11    12    1
    20    11    13    1
    21     4     5    1
    22     5     6    1
    23    23    24   ar
    24    24    16   ar
    25    24    19    1
    26     6     1    1
    27    13     7    1
    28    20    25    1
@<TRIPOS>MOLECULE
*****
 25 28 0 0 0
SMALL
GASTEIGER

@<TRIPOS>ATOM
      1 C         143.5935  139.3391  164.8809 C.3     1  UNL1        0.1676
      2 C         142.7440  140.5708  164.7744 C.3     1  UNL1        0.0450
      3 C         141.9848  141.0640  165.9704 C.3     1  UNL1        0.0197
      4 C         142.0749  140.3254  167.2728 C.3     1  UNL1        0.0579
      5 C         142.9243  139.0937  167.3794 C.3     1  UNL1        0.0197
      6 C         143.6836  138.6005  166.1834 C.3     1  UNL1        0.0450
      7 N         141.3156  140.8186  168.4688 N.3     1  UNL1       -0.2698
      8 C         140.7462  139.8392  169.4519 C.3     1  UNL1        0.1046
      9 C         139.9869  140.3324  170.6477 C.3     1  UNL1        0.1594
     10 O         139.7970  141.8050  170.8606 O.3     1  UNL1       -0.3533
     11 C         140.3664  142.7845  169.8775 C.3     1  UNL1        0.1313
     12 C         140.1765  144.2571  170.0903 C.3     1  UNL1        0.0335
     13 C         141.1257  142.2913  168.6816 C.3     1  UNL1        0.1020
     14 O         144.3528  138.8460  163.6850 O.3     1  UNL1       -0.4639
     15 C         145.6574  141.7477  163.2636 C.3     1  UNL1        0.0329
     16 C         144.9331  141.5522  161.9647 C.ar    1  UNL1        0.0047
     17 C         144.8911  142.5249  160.8236 C.ar    1  UNL1        0.0965
     18 N         144.0557  141.9236  159.7325 N.ar    1  UNL1       -0.2271
     19 C         143.5815  140.5792  160.1992 C.ar    1  UNL1        0.1459
     20 N         142.7260  139.5344  159.5462 N.ar    1  UNL1       -0.3213
     21 C         142.4127  138.2601  160.2728 C.ar    1  UNL1        0.1791
     22 N         142.9550  138.0306  161.6524 N.ar    1  UNL1       -0.1912
     23 C         143.8105  139.0754  162.3054 C.ar    1  UNL1        0.2287
     24 C         144.1238  140.3497  161.5788 C.ar    1  UNL1        0.0846
     25 H         142.3701  139.6850  158.6408 H       1  UNL1        0.1689
@<TRIPOS>BOND
     1    15    16    1
     2    16    17   ar
     3    17    18   ar
     4    18    19   ar
     5    19    20   ar
     6    20    21   ar
     7    21    22   ar
     8    22    23   ar
     9    23    14    1
    10     1    14    1
    11     1     2    1
    12     2     3    1
    13     3     4    1
    14     4     7    1
    15     7     8    1
    16     8     9    1
    17     9    10    1
    18    10    11    1
    19    11    12    1
    20    11    13    1
    21     4     5    1
    22     5     6    1
    23    23    24   ar
    24    24    16   ar
    25    24    19    1
    26     6     1    1
    27    13     7    1
    28    20    25    1
@<TRIPOS>MOLECULE
*****
 25 28 0 0 0
SMALL
GASTEIGER

@<TRIPOS>ATOM
      1 C         138.4393  140.2245  164.7527 C.3     1  UNL1        0.1676
      2 C         139.4017  141.3682  164.8787 C.3     1  UNL1        0.0450
      3 C         140.1226  141.6027  166.1730 C.3     1  UNL1        0.0197
      4 C         139.8812  140.6934  167.3414 C.3     1  UNL1        0.0579
      5 C         138.9189  139.5498  167.2154 C.3     1  UNL1        0.0197
      6 C         138.1979  139.3153  165.9210 C.3     1  UNL1        0.0450
      7 N         140.6022  140.9279  168.6357 N.3     1  UNL1       -0.2698
      8 C         139.9681  140.5190  169.9322 C.3     1  UNL1        0.1046
      9 C         140.6891  140.7535  171.2264 C.3     1  UNL1        0.1594
     10 O         142.0441  141.3968  171.2243 O.3     1  UNL1       -0.3533
     11 C         142.6782  141.8057  169.9278 C.3     1  UNL1        0.1313
     12 C         144.0332  142.4490  169.9257 C.3     1  UNL1        0.0335
     13 C         141.9572  141.5712  168.6336 C.3     1  UNL1        0.1020
     14 O         137.7184  139.9901  163.4584 O.3     1  UNL1       -0.4639
     15 C         139.8119  137.6453  162.8110 C.3     1  UNL1        0.0329
     16 C         140.0297  138.5714  161.6513 C.ar    1  UNL1        0.0047
     17 C         141.0018  138.3641  160.5279 C.ar    1  UNL1        0.0965
     18 N         140.8865  139.5320  159.5937 N.ar    1  UNL1       -0.2271
     19 C         139.8433  140.4612  160.1398 C.ar    1  UNL1        0.1459
     20 N         139.3070  141.7712  159.6434 N.ar    1  UNL1       -0.3213
     21 C         138.2413  142.4874  160.4187 C.ar    1  UNL1        0.1791
     22 N         137.7117  141.8937  161.6903 N.ar    1  UNL1       -0.1912
     23 C         138.2480  140.5838  162.1867 C.ar    1  UNL1        0.2287
     24 C         139.3137  139.8675  161.4115 C.ar    1  UNL1        0.0846
     25 H         139.6546  142.1608  158.8088 H       1  UNL1        0.1689
@<TRIPOS>BOND
     1    15    16    1
     2    16    17   ar
     3    17    18   ar
     4    18    19   ar
     5    19    20   ar
     6    20    21   ar
     7    21    22   ar
     8    22    23   ar
     9    23    14    1
    10     1    14    1
    11     1     2    1
    12     2     3    1
    13     3     4    1
    14     4     7    1
    15     7     8    1
    16     8     9    1
    17     9    10    1
    18    10    11    1
    19    11    12    1
    20    11    13    1
    21     4     5    1
    22     5     6    1
    23    23    24   ar
    24    24    16   ar
    25    24    19    1
    26     6     1    1
    27    13     7    1
    28    20    25    1
@<TRIPOS>MOLECULE
*****
 25 28 0 0 0
SMALL
GASTEIGER

@<TRIPOS>ATOM
      1 C         140.7409  138.2663  164.9724 C.3     1  UNL1        0.1676
      2 C         139.5163  138.8110  165.6460 C.3     1  UNL1        0.0450
      3 C         139.6492  139.6295  166.8959 C.3     1  UNL1        0.0197
      4 C         141.0067  139.9035  167.4722 C.3     1  UNL1        0.0579
      5 C         142.2313  139.3588  166.7987 C.3     1  UNL1        0.0197
      6 C         142.0984  138.5402  165.5487 C.3     1  UNL1        0.0450
      7 N         141.1396  140.7221  168.7222 N.3     1  UNL1       -0.2698
      8 C         141.7610  140.1226  169.9488 C.3     1  UNL1        0.1046
      9 C         141.8938  140.9412  171.1986 C.3     1  UNL1        0.1594
     10 O         141.4053  142.3593  171.2219 O.3     1  UNL1       -0.3533
     11 C         140.7840  142.9587  169.9953 C.3     1  UNL1        0.1313
     12 C         140.2955  144.3767  170.0186 C.3     1  UNL1        0.0335
     13 C         140.6511  142.1401  168.7455 C.3     1  UNL1        0.1020
     14 O         140.6080  137.4477  163.7225 O.3     1  UNL1       -0.4639
     15 C         143.3012  138.0464  162.0830 C.3     1  UNL1        0.0329
     16 C         142.2529  138.5340  161.1274 C.ar    1  UNL1        0.0047
     17 C         142.5027  139.1324  159.7748 C.ar    1  UNL1        0.0965
     18 N         141.1749  139.4771  159.1681 N.ar    1  UNL1       -0.2271
     19 C         140.1045  139.0917  160.1457 C.ar    1  UNL1        0.1459
     20 N         138.6092  139.1963  160.0897 N.ar    1  UNL1       -0.3213
     21 C         137.7802  138.7180  161.2446 C.ar    1  UNL1        0.1791
     22 N         138.4465  138.1351  162.4556 N.ar    1  UNL1       -0.1912
     23 C         139.9417  138.0306  162.5116 C.ar    1  UNL1        0.2287
     24 C         140.7708  138.5089  161.3567 C.ar    1  UNL1        0.0846
     25 H         138.1719  139.5788  159.2949 H       1  UNL1        0.1689
@<TRIPOS>BOND
     1    15    16    1
     2    16    17   ar
     3    17    18   ar
     4    18    19   ar
     5    19    20   ar
     6    20    21   ar
     7    21    22   ar
     8    22    23   ar
     9    23    14    1
    10     1    14    1
    11     1     2    1
    12     2     3    1
    13     3     4    1
    14     4     7    1
    15     7     8    1
    16     8     9    1
    17     9    10    1
    18    10    11    1
    19    11    12    1
    20    11    13    1
    21     4     5    1
    22     5     6    1
    23    23    24   ar
    24    24    16   ar
    25    24    19    1
    26     6     1    1
    27    13     7    1
    28    20    25    1
@<TRIPOS>MOLECULE
*****
 25 28 0 0 0
SMALL
GASTEIGER

@<TRIPOS>ATOM
      1 C         139.0698  139.0968  164.6975 C.3     1  UNL1        0.1676
      2 C         138.2480  139.0733  165.9522 C.3     1  UNL1        0.0450
      3 C         138.8448  139.5351  167.2485 C.3     1  UNL1        0.0197
      4 C         140.2636  140.0204  167.2902 C.3     1  UNL1        0.0579
      5 C         141.0854  140.0439  166.0356 C.3     1  UNL1        0.0197
      6 C         140.4885  139.5820  164.7393 C.3     1  UNL1        0.0450
      7 N         140.8604  140.4822  168.5866 N.3     1  UNL1       -0.2698
      8 C         140.1569  140.1964  169.8802 C.3     1  UNL1        0.1046
      9 C         140.7538  140.6582  171.1764 C.3     1  UNL1        0.1594
     10 O         142.0542  141.4058  171.1792 O.3     1  UNL1       -0.3533
     11 C         142.7577  141.6916  169.8856 C.3     1  UNL1        0.1313
     12 C         144.0582  142.4392  169.8884 C.3     1  UNL1        0.0335
     13 C         142.1609  141.2298  168.5893 C.3     1  UNL1        0.1020
     14 O         138.4729  138.6350  163.4013 O.3     1  UNL1       -0.4639
     15 C         137.2626  141.6056  163.3003 C.3     1  UNL1        0.0329
     16 C         138.0633  141.5640  162.0326 C.ar    1  UNL1        0.0047
     17 C         138.1994  142.6792  161.0387 C.ar    1  UNL1        0.0965
     18 N         139.0887  142.2043  159.9281 N.ar    1  UNL1       -0.2271
     19 C         139.5024  140.7957  160.2356 C.ar    1  UNL1        0.1459
     20 N         140.3742  139.8222  159.4993 N.ar    1  UNL1       -0.3213
     21 C         140.6122  138.4530  160.0636 C.ar    1  UNL1        0.1791
     22 N         139.9785  138.0572  161.3643 N.ar    1  UNL1       -0.1912
     23 C         139.1067  139.0307  162.1006 C.ar    1  UNL1        0.2287
     24 C         138.8686  140.3999  161.5363 C.ar    1  UNL1        0.0846
     25 H         140.7901  140.0819  158.6456 H       1  UNL1        0.1689
@<TRIPOS>BOND
     1    15    16    1
     2    16    17   ar
     3    17    18   ar
     4    18    19   ar
     5    19    20   ar
     6    20    21   ar
     7    21    22   ar
     8    22    23   ar
     9    23    14    1
    10     1    14    1
    11     1     2    1
    12     2     3    1
    13     3     4    1
    14     4     7    1
    15     7     8    1
    16     8     9    1
    17     9    10    1
    18    10    11    1
    19    11    12    1
    20    11    13    1
    21     4     5    1
    22     5     6    1
    23    23    24   ar
    24    24    16   ar
    25    24    19    1
    26     6     1    1
    27    13     7    1
    28    20    25    1
@<TRIPOS>MOLECULE
*****
 25 28 0 0 0
SMALL
GASTEIGER

@<TRIPOS>ATOM
      1 C         141.3515  141.5090  165.7165 C.3     1  UNL1        0.1676
      2 C         141.8616  141.1740  164.3462 C.3     1  UNL1        0.0450
      3 C         141.5359  142.0668  163.1857 C.3     1  UNL1        0.0197
      4 C         140.7000  143.2945  163.3954 C.3     1  UNL1        0.0579
      5 C         140.1899  143.6296  164.7656 C.3     1  UNL1        0.0197
      6 C         140.5157  142.7368  165.9262 C.3     1  UNL1        0.0450
      7 N         140.3743  144.1873  162.2348 N.3     1  UNL1       -0.2698
      8 C         139.8758  145.5810  162.4774 C.3     1  UNL1        0.1046
      9 C         139.5501  146.4737  161.3169 C.3     1  UNL1        0.1594
     10 O         139.7230  145.9727  159.9136 O.3     1  UNL1       -0.3533
     11 C         140.2215  144.5790  159.6710 C.3     1  UNL1        0.1313
     12 C         140.3944  144.0780  158.2677 C.3     1  UNL1        0.0335
     13 C         140.5472  143.6863  160.8315 C.3     1  UNL1        0.1020
     14 O         141.6772  140.6163  166.8770 O.3     1  UNL1       -0.4639
     15 C         143.4028  142.1746  169.0892 C.3     1  UNL1        0.0329
     16 C         142.1836  141.7910  169.8744 C.ar    1  UNL1        0.0047
     17 C         141.9313  142.1035  171.3196 C.ar    1  UNL1        0.0965
     18 N         140.5944  141.5331  171.6905 N.ar    1  UNL1       -0.2271
     19 C         140.0206  140.8682  170.4745 C.ar    1  UNL1        0.1459
     20 N         138.7306  140.1381  170.2444 N.ar    1  UNL1       -0.3213
     21 C         138.4229  139.5675  168.8918 C.ar    1  UNL1        0.1791
     22 N         139.4051  139.7268  167.7693 N.ar    1  UNL1       -0.1912
     23 C         140.6950  140.4569  167.9995 C.ar    1  UNL1        0.2287
     24 C         141.0028  141.0275  169.3521 C.ar    1  UNL1        0.0846
     25 H         138.0860  140.0335  170.9811 H       1  UNL1        0.1689
@<TRIPOS>BOND
     1    15    16    1
     2    16    17   ar
     3    17    18   ar
     4    18    19   ar
     5    19    20   ar
     6    20    21   ar
     7    21    22   ar
     8    22    23   ar
     9    23    14    1
    10     1    14    1
    11     1     2    1
    12     2     3    1
    13     3     4    1
    14     4     7    1
    15     7     8    1
    16     8     9    1
    17     9    10    1
    18    10    11    1
    19    11    12    1
    20    11    13    1
    21     4     5    1
    22     5     6    1
    23    23    24   ar
    24    24    16   ar
    25    24    19    1
    26     6     1    1
    27    13     7    1
    28    20    25    1
@<TRIPOS>MOLECULE
*****
 25 28 0 0 0
SMALL
GASTEIGER

@<TRIPOS>ATOM
      1 C         142.8250  140.6085  165.3627 C.3     1  UNL1        0.1676
      2 C         143.7267  139.4883  164.9359 C.3     1  UNL1        0.0450
      3 C         143.8375  139.1261  163.4845 C.3     1  UNL1        0.0197
      4 C         143.0466  139.8841  162.4599 C.3     1  UNL1        0.0579
      5 C         142.1449  141.0043  162.8866 C.3     1  UNL1        0.0197
      6 C         142.0341  141.3665  164.3380 C.3     1  UNL1        0.0450
      7 N         143.1575  139.5219  161.0084 N.3     1  UNL1       -0.2698
      8 C         142.6505  138.1953  160.5256 C.3     1  UNL1        0.1046
      9 C         142.7614  137.8332  159.0743 C.3     1  UNL1        0.1594
     10 O         143.3792  138.7976  158.1057 O.3     1  UNL1       -0.3533
     11 C         143.8862  140.1242  158.5885 C.3     1  UNL1        0.1313
     12 C         144.5040  141.0886  157.6199 C.3     1  UNL1        0.0335
     13 C         143.7753  140.4863  160.0398 C.3     1  UNL1        0.1020
     14 O         142.7141  140.9706  166.8140 O.3     1  UNL1       -0.4639
     15 C         143.6490  142.2440  169.6076 C.3     1  UNL1        0.0329
     16 C         142.2893  141.7163  169.9579 C.ar    1  UNL1        0.0047
     17 C         141.6259  141.8103  171.2999 C.ar    1  UNL1        0.0965
     18 N         140.2809  141.1540  171.1990 N.ar    1  UNL1       -0.2271
     19 C         140.1130  140.6544  169.7947 C.ar    1  UNL1        0.1459
     20 N         138.9902  139.9280  169.1152 N.ar    1  UNL1       -0.3213
     21 C         139.1088  139.5491  167.6688 C.ar    1  UNL1        0.1791
     22 N         140.3501  139.8967  166.9017 N.ar    1  UNL1       -0.1912
     23 C         141.4728  140.6231  167.5811 C.ar    1  UNL1        0.2287
     24 C         141.3543  141.0020  169.0276 C.ar    1  UNL1        0.0846
     25 H         138.1755  139.6999  169.6187 H       1  UNL1        0.1689
@<TRIPOS>BOND
     1    15    16    1
     2    16    17   ar
     3    17    18   ar
     4    18    19   ar
     5    19    20   ar
     6    20    21   ar
     7    21    22   ar
     8    22    23   ar
     9    23    14    1
    10     1    14    1
    11     1     2    1
    12     2     3    1
    13     3     4    1
    14     4     7    1
    15     7     8    1
    16     8     9    1
    17     9    10    1
    18    10    11    1
    19    11    12    1
    20    11    13    1
    21     4     5    1
    22     5     6    1
    23    23    24   ar
    24    24    16   ar
    25    24    19    1
    26     6     1    1
    27    13     7    1
    28    20    25    1
@<TRIPOS>MOLECULE
*****
 25 28 0 0 0
SMALL
GASTEIGER

@<TRIPOS>ATOM
      1 C         139.3435  139.8637  166.9799 C.3     1  UNL1        0.1676
      2 C         138.8396  138.7227  166.1467 C.3     1  UNL1        0.0450
      3 C         138.5702  138.9232  164.6848 C.3     1  UNL1        0.0197
      4 C         138.8048  140.2647  164.0561 C.3     1  UNL1        0.0579
      5 C         139.3087  141.4057  164.8892 C.3     1  UNL1        0.0197
      6 C         139.5781  141.2052  166.3512 C.3     1  UNL1        0.0450
      7 N         138.5354  140.4653  162.5941 N.3     1  UNL1       -0.2698
      8 C         137.7496  139.4420  161.8290 C.3     1  UNL1        0.1046
      9 C         137.4803  139.6426  160.3671 C.3     1  UNL1        0.1594
     10 O         137.9968  140.8664  159.6703 O.3     1  UNL1       -0.3533
     11 C         138.7826  141.8896  160.4354 C.3     1  UNL1        0.1313
     12 C         139.2991  143.1134  159.7385 C.3     1  UNL1        0.0335
     13 C         139.0519  141.6890  161.8973 C.3     1  UNL1        0.1020
     14 O         139.6128  139.6631  168.4418 O.3     1  UNL1       -0.4639
     15 C         142.6881  139.9220  167.5610 C.3     1  UNL1        0.0329
     16 C         142.5625  141.0448  168.5478 C.ar    1  UNL1        0.0047
     17 C         143.6547  141.9904  168.9511 C.ar    1  UNL1        0.0965
     18 N         143.0898  142.9490  169.9570 N.ar    1  UNL1       -0.2271
     19 C         141.6484  142.5959  170.1754 C.ar    1  UNL1        0.1459
     20 N         140.5906  143.1939  171.0547 N.ar    1  UNL1       -0.3213
     21 C         139.2069  142.6150  171.0631 C.ar    1  UNL1        0.1791
     22 N         138.8810  141.4381  170.1922 N.ar    1  UNL1       -0.1912
     23 C         139.9388  140.8400  169.3128 C.ar    1  UNL1        0.2287
     24 C         141.3225  141.4189  169.3044 C.ar    1  UNL1        0.0846
     25 H         140.8045  143.9664  171.6264 H       1  UNL1        0.1689
@<TRIPOS>BOND
     1    15    16    1
     2    16    17   ar
     3    17    18   ar
     4    18    19   ar
     5    19    20   ar
     6    20    21   ar
     7    21    22   ar
     8    22    23   ar
     9    23    14    1
    10     1    14    1
    11     1     2    1
    12     2     3    1
    13     3     4    1
    14     4     7    1
    15     7     8    1
    16     8     9    1
    17     9    10    1
    18    10    11    1
    19    11    12    1
    20    11    13    1
    21     4     5    1
    22     5     6    1
    23    23    24   ar
    24    24    16   ar
    25    24    19    1
    26     6     1    1
    27    13     7    1
    28    20    25    1
