@<TRIPOS>MOLECULE
*****
 43 48 0 0 0
SMALL
GASTEIGER

@<TRIPOS>ATOM
      1 C         141.3085  143.1860  157.0588 C.ar    1  UNL1        0.1450
      2 C         141.3194  144.6859  157.0506 C.ar    1  UNL1        0.0371
      3 C         140.9475  145.4455  158.2895 C.ar    1  UNL1       -0.0014
      4 C         140.5647  144.7051  159.5365 C.ar    1  UNL1       -0.0258
      5 C         140.5537  143.2051  159.5448 C.ar    1  UNL1       -0.0215
      6 C         140.9256  142.4456  158.3059 C.ar    1  UNL1        0.0330
      7 C         140.1708  142.4647  160.7918 C.3     1  UNL1        0.0457
      8 C         139.7989  143.2242  162.0307 C.3     1  UNL1        0.0765
      9 C         139.8099  144.7241  162.0225 C.3     1  UNL1        0.0246
     10 C         140.1927  145.4646  160.7754 C.3     1  UNL1        0.0277
     11 N         139.4160  142.4838  163.2778 N.am    1  UNL1       -0.3021
     12 C         140.4680  142.1040  164.2774 C.2     1  UNL1        0.2458
     13 O         141.9029  142.4647  164.0299 O.2     1  UNL1       -0.2701
     14 H         138.4743  142.2470  163.4402 H       1  UNL1        0.1497
     15 C         140.0852  141.3636  165.5244 C.ar    1  UNL1        0.0534
     16 C         140.5514  141.8564  166.8623 C.ar    1  UNL1        0.0060
     17 C         140.1686  141.1159  168.1093 C.ar    1  UNL1        0.0172
     18 C         139.3195  139.8827  168.0186 C.ar    1  UNL1        0.0053
     19 C         138.8533  139.3899  166.6808 C.ar    1  UNL1        0.0716
     20 C         139.2362  140.1304  165.4337 C.ar    1  UNL1        0.0084
     21 C         140.6349  141.6087  169.4472 C.ar    1  UNL1        0.0754
     22 C         141.9981  142.1503  169.7612 C.ar    1  UNL1        0.0409
     23 C         142.0254  142.5227  171.2140 C.ar    1  UNL1        0.1214
     24 N         140.6793  142.2113  171.7978 N.ar    1  UNL1       -0.1711
     25 N         139.8199  141.6465  170.7059 N.ar    1  UNL1       -0.2757
     26 H         138.8850  141.3521  170.7990 H       1  UNL1        0.1889
     27 C         138.0043  138.1567  166.5900 C.3     1  UNL1        0.4186
     28 F         137.1552  136.9235  166.4992 F       1  UNL1       -0.1659
     29 F         138.7773  137.7133  165.3834 F       1  UNL1       -0.1659
     30 F         137.2313  138.6001  167.7965 F       1  UNL1       -0.1659
     31 O         141.6804  142.4265  155.8199 O.3     1  UNL1       -0.4537
     32 O         148.4833  141.4850  155.5288 O.2     1  UNL1       -0.2747
     33 C         146.9885  141.4081  155.6279 C.2     1  UNL1        0.2275
     34 C         146.1647  142.6572  155.5228 C.3     1  UNL1        0.0903
     35 C         144.6699  142.5803  155.6219 C.3     1  UNL1        0.0419
     36 C         143.9990  141.2544  155.8259 C.ar    1  UNL1        0.0445
     37 C         142.5043  141.1775  155.9249 C.ar    1  UNL1        0.1455
     38 C         141.8334  139.8515  156.1290 C.ar    1  UNL1        0.0579
     39 C         142.6572  138.6023  156.2340 C.ar    1  UNL1        0.1034
     40 N         144.1520  138.6792  156.1350 N.ar    1  UNL1       -0.2291
     41 C         144.8229  140.0053  155.9309 C.ar    1  UNL1        0.1330
     42 N         146.3176  140.0822  155.8319 N.am    1  UNL1       -0.2695
     43 H         146.8583  139.2624  155.9008 H       1  UNL1        0.1562
@<TRIPOS>BOND
     1    32    33    2
     2    33    34    1
     3    34    35    1
     4    35    36    1
     5    36    37   ar
     6    37    31    1
     7    31     1    1
     8     1     2   ar
     9     2     3   ar
    10     3     4   ar
    11     4     5   ar
    12     5     6   ar
    13     5     7    1
    14     7     8    1
    15     8    11    1
    16    11    12   am
    17    12    13    2
    18    12    15    1
    19    15    16   ar
    20    16    17   ar
    21    17    21    1
    22    21    22   ar
    23    22    23   ar
    24    23    24   ar
    25    24    25   ar
    26    17    18   ar
    27    18    19   ar
    28    19    27    1
    29    27    28    1
    30    27    29    1
    31    27    30    1
    32    19    20   ar
    33     8     9    1
    34     9    10    1
    35    37    38   ar
    36    38    39   ar
    37    39    40   ar
    38    40    41   ar
    39    41    42    1
    40    42    33   am
    41    41    36   ar
    42     6     1   ar
    43    20    15   ar
    44    10     4    1
    45    25    21   ar
    46    11    14    1
    47    25    26    1
    48    42    43    1
@<TRIPOS>MOLECULE
*****
 43 48 0 0 0
SMALL
GASTEIGER

@<TRIPOS>ATOM
      1 C         141.2804  142.5937  164.3305 C.ar    1  UNL1        0.1450
      2 C         142.6355  143.2300  164.4231 C.ar    1  UNL1        0.0371
      3 C         143.6494  142.9961  163.3427 C.ar    1  UNL1       -0.0014
      4 C         143.3081  142.1259  162.1696 C.ar    1  UNL1       -0.0258
      5 C         141.9529  141.4895  162.0769 C.ar    1  UNL1       -0.0215
      6 C         140.9390  141.7234  163.1573 C.ar    1  UNL1        0.0330
      7 C         141.6116  140.6193  160.9038 C.3     1  UNL1        0.0457
      8 C         142.6255  140.3854  159.8234 C.3     1  UNL1        0.0765
      9 C         143.9807  141.0217  159.9160 C.3     1  UNL1        0.0246
     10 C         144.3220  141.8920  161.0892 C.3     1  UNL1        0.0277
     11 N         142.2842  139.5151  158.6502 N.am    1  UNL1       -0.3021
     12 C         142.4668  138.0290  158.7405 C.2     1  UNL1        0.2458
     13 O         142.9908  137.4132  160.0040 O.2     1  UNL1       -0.2701
     14 H         141.9403  139.9193  157.8210 H       1  UNL1        0.1497
     15 C         142.1255  137.1588  157.5675 C.ar    1  UNL1        0.0534
     16 C         140.9211  137.4688  156.7289 C.ar    1  UNL1        0.0060
     17 C         140.5798  136.5985  155.5558 C.ar    1  UNL1        0.0172
     18 C         141.4430  135.4182  155.2213 C.ar    1  UNL1        0.0053
     19 C         142.6474  135.1082  156.0599 C.ar    1  UNL1        0.0716
     20 C         142.9887  135.9785  157.2330 C.ar    1  UNL1        0.0084
     21 C         139.3754  136.9085  154.7172 C.ar    1  UNL1        0.0754
     22 C         139.2495  136.6869  153.2390 C.ar    1  UNL1        0.0409
     23 C         137.8817  137.1360  152.8178 C.ar    1  UNL1        0.1214
     24 N         137.1622  137.6351  154.0357 N.ar    1  UNL1       -0.1711
     25 N         138.0853  137.4945  155.2096 N.ar    1  UNL1       -0.2757
     26 H         137.8805  137.7432  156.1399 H       1  UNL1        0.1889
     27 C         143.5105  133.9279  155.7254 C.3     1  UNL1        0.4186
     28 F         144.3737  132.7476  155.3910 F       1  UNL1       -0.1659
     29 F         144.1337  133.9974  157.0881 F       1  UNL1       -0.1659
     30 F         142.8874  133.8584  154.3628 F       1  UNL1       -0.1659
     31 O         140.2665  142.8276  165.4109 O.3     1  UNL1       -0.4537
     32 O         140.6029  142.1626  172.2442 O.2     1  UNL1       -0.2747
     33 C         140.4156  142.0468  170.7605 C.2     1  UNL1        0.2275
     34 C         140.8282  143.1750  169.8621 C.3     1  UNL1        0.0903
     35 C         140.6410  143.0592  168.3784 C.3     1  UNL1        0.0419
     36 C         140.0411  141.8153  167.7929 C.ar    1  UNL1        0.0445
     37 C         139.8539  141.6995  166.3092 C.ar    1  UNL1        0.1455
     38 C         139.2540  140.4556  165.7237 C.ar    1  UNL1        0.0579
     39 C         138.8414  139.3273  166.6221 C.ar    1  UNL1        0.1034
     40 N         139.0286  139.4431  168.1058 N.ar    1  UNL1       -0.2291
     41 C         139.6285  140.6871  168.6913 C.ar    1  UNL1        0.1330
     42 N         139.8158  140.8029  170.1750 N.am    1  UNL1       -0.2695
     43 H         139.5449  140.0624  170.7646 H       1  UNL1        0.1562
@<TRIPOS>BOND
     1    32    33    2
     2    33    34    1
     3    34    35    1
     4    35    36    1
     5    36    37   ar
     6    37    31    1
     7    31     1    1
     8     1     2   ar
     9     2     3   ar
    10     3     4   ar
    11     4     5   ar
    12     5     6   ar
    13     5     7    1
    14     7     8    1
    15     8    11    1
    16    11    12   am
    17    12    13    2
    18    12    15    1
    19    15    16   ar
    20    16    17   ar
    21    17    21    1
    22    21    22   ar
    23    22    23   ar
    24    23    24   ar
    25    24    25   ar
    26    17    18   ar
    27    18    19   ar
    28    19    27    1
    29    27    28    1
    30    27    29    1
    31    27    30    1
    32    19    20   ar
    33     8     9    1
    34     9    10    1
    35    37    38   ar
    36    38    39   ar
    37    39    40   ar
    38    40    41   ar
    39    41    42    1
    40    42    33   am
    41    41    36   ar
    42     6     1   ar
    43    20    15   ar
    44    10     4    1
    45    25    21   ar
    46    11    14    1
    47    25    26    1
    48    42    43    1
@<TRIPOS>MOLECULE
*****
 43 48 0 0 0
SMALL
GASTEIGER

@<TRIPOS>ATOM
      1 C         140.6184  141.4827  165.5712 C.ar    1  UNL1        0.1450
      2 C         139.2234  140.9671  165.7666 C.ar    1  UNL1        0.0371
      3 C         138.6469  139.9777  164.7977 C.ar    1  UNL1       -0.0014
      4 C         139.4653  139.5039  163.6334 C.ar    1  UNL1       -0.0258
      5 C         140.8604  140.0195  163.4380 C.ar    1  UNL1       -0.0215
      6 C         141.4369  141.0089  164.4068 C.ar    1  UNL1        0.0330
      7 C         141.6788  139.5457  162.2737 C.3     1  UNL1        0.0457
      8 C         141.1023  138.5562  161.3048 C.3     1  UNL1        0.0765
      9 C         139.7074  138.0407  161.5002 C.3     1  UNL1        0.0246
     10 C         138.8888  138.5145  162.6645 C.3     1  UNL1        0.0277
     11 N         141.9209  138.0824  160.1405 N.am    1  UNL1       -0.3021
     12 C         141.8239  138.7865  158.8196 C.2     1  UNL1        0.2458
     13 O         140.9083  139.9644  158.6629 O.2     1  UNL1       -0.2701
     14 H         142.5217  137.3094  160.2433 H       1  UNL1        0.1497
     15 C         142.6423  138.3127  157.6553 C.ar    1  UNL1        0.0534
     16 C         142.6785  136.8539  157.3081 C.ar    1  UNL1        0.0060
     17 C         143.4970  136.3802  156.1438 C.ar    1  UNL1        0.0172
     18 C         144.2793  137.3652  155.3266 C.ar    1  UNL1        0.0053
     19 C         144.2431  138.8240  155.6738 C.ar    1  UNL1        0.0716
     20 C         143.4246  139.2978  156.8382 C.ar    1  UNL1        0.0084
     21 C         143.5332  134.9213  155.7966 C.ar    1  UNL1        0.0754
     22 C         142.7708  134.2599  154.6869 C.ar    1  UNL1        0.0409
     23 C         143.1046  132.7976  154.7026 C.ar    1  UNL1        0.1214
     24 N         144.0733  132.5552  155.8220 N.ar    1  UNL1       -0.1711
     25 N         144.3381  133.8678  156.4981 N.ar    1  UNL1       -0.2757
     26 H         144.9355  134.0124  157.2672 H       1  UNL1        0.1889
     27 C         145.0254  139.8091  154.8567 C.3     1  UNL1        0.4186
     28 F         145.8077  140.7942  154.0396 F       1  UNL1       -0.1659
     29 F         145.6526  140.3488  156.1078 F       1  UNL1       -0.1659
     30 F         144.3982  139.2694  153.6056 F       1  UNL1       -0.1659
     31 O         141.1949  142.4721  166.5400 O.3     1  UNL1       -0.4537
     32 O         143.4119  137.3684  170.5757 O.2     1  UNL1       -0.2747
     33 C         142.8200  138.5892  169.9358 C.2     1  UNL1        0.2275
     34 C         142.9704  138.8099  168.4598 C.3     1  UNL1        0.0903
     35 C         142.3785  140.0306  167.8199 C.3     1  UNL1        0.0419
     36 C         141.6364  141.0307  168.6560 C.ar    1  UNL1        0.0445
     37 C         141.0445  142.2514  168.0160 C.ar    1  UNL1        0.1455
     38 C         140.3023  143.2514  168.8521 C.ar    1  UNL1        0.0579
     39 C         140.1519  143.0307  170.3282 C.ar    1  UNL1        0.1034
     40 N         140.7438  141.8100  170.9681 N.ar    1  UNL1       -0.2291
     41 C         141.4860  140.8099  170.1320 C.ar    1  UNL1        0.1330
     42 N         142.0779  139.5892  170.7719 N.am    1  UNL1       -0.2695
     43 H         141.9792  139.4443  171.7407 H       1  UNL1        0.1562
@<TRIPOS>BOND
     1    32    33    2
     2    33    34    1
     3    34    35    1
     4    35    36    1
     5    36    37   ar
     6    37    31    1
     7    31     1    1
     8     1     2   ar
     9     2     3   ar
    10     3     4   ar
    11     4     5   ar
    12     5     6   ar
    13     5     7    1
    14     7     8    1
    15     8    11    1
    16    11    12   am
    17    12    13    2
    18    12    15    1
    19    15    16   ar
    20    16    17   ar
    21    17    21    1
    22    21    22   ar
    23    22    23   ar
    24    23    24   ar
    25    24    25   ar
    26    17    18   ar
    27    18    19   ar
    28    19    27    1
    29    27    28    1
    30    27    29    1
    31    27    30    1
    32    19    20   ar
    33     8     9    1
    34     9    10    1
    35    37    38   ar
    36    38    39   ar
    37    39    40   ar
    38    40    41   ar
    39    41    42    1
    40    42    33   am
    41    41    36   ar
    42     6     1   ar
    43    20    15   ar
    44    10     4    1
    45    25    21   ar
    46    11    14    1
    47    25    26    1
    48    42    43    1
@<TRIPOS>MOLECULE
*****
 43 48 0 0 0
SMALL
GASTEIGER

@<TRIPOS>ATOM
      1 C         141.4292  143.6928  157.4028 C.ar    1  UNL1        0.1450
      2 C         141.3149  145.1883  157.4109 C.ar    1  UNL1        0.0371
      3 C         140.8243  145.8964  158.6389 C.ar    1  UNL1       -0.0014
      4 C         140.4480  145.1088  159.8588 C.ar    1  UNL1       -0.0258
      5 C         140.5623  143.6132  159.8507 C.ar    1  UNL1       -0.0215
      6 C         141.0529  142.9051  158.6227 C.ar    1  UNL1        0.0330
      7 C         140.1861  142.8256  161.0706 C.3     1  UNL1        0.0457
      8 C         139.6955  143.5337  162.2986 C.3     1  UNL1        0.0765
      9 C         139.5811  145.0293  162.3067 C.3     1  UNL1        0.0246
     10 C         139.9574  145.8169  161.0868 C.3     1  UNL1        0.0277
     11 N         139.3192  142.7460  163.5185 N.am    1  UNL1       -0.3021
     12 C         140.3864  142.1113  164.3601 C.2     1  UNL1        0.2458
     13 O         141.8299  142.2642  163.9817 O.2     1  UNL1       -0.2701
     14 H         138.3718  142.6457  163.7669 H       1  UNL1        0.1497
     15 C         140.0102  141.3237  165.5800 C.ar    1  UNL1        0.0534
     16 C         140.4327  141.7981  166.9388 C.ar    1  UNL1        0.0060
     17 C         140.0565  141.0105  168.1586 C.ar    1  UNL1        0.0172
     18 C         139.2577  139.7485  168.0197 C.ar    1  UNL1        0.0053
     19 C         138.8352  139.2741  166.6609 C.ar    1  UNL1        0.0716
     20 C         139.2115  140.0617  165.4410 C.ar    1  UNL1        0.0084
     21 C         140.4791  141.4849  169.5175 C.ar    1  UNL1        0.0754
     22 C         141.8862  141.5386  170.0345 C.ar    1  UNL1        0.0409
     23 C         141.8454  142.0758  171.4344 C.ar    1  UNL1        0.1214
     24 N         140.4132  142.3541  171.7826 N.ar    1  UNL1       -0.1711
     25 N         139.5687  141.9889  170.5979 N.ar    1  UNL1       -0.2757
     26 H         138.5890  142.0664  170.5397 H       1  UNL1        0.1889
     27 C         138.0365  138.0121  166.5219 C.3     1  UNL1        0.4186
     28 F         137.2377  136.7501  166.3830 F       1  UNL1       -0.1659
     29 F         138.9504  137.5545  165.4241 F       1  UNL1       -0.1659
     30 F         137.1226  138.4696  167.6198 F       1  UNL1       -0.1659
     31 O         141.9198  142.9847  156.1748 O.3     1  UNL1       -0.4537
     32 O         141.7902  136.1200  156.5044 O.2     1  UNL1       -0.2747
     33 C         142.1010  137.5864  156.4482 C.2     1  UNL1        0.2275
     34 C         140.9873  138.5856  156.3433 C.3     1  UNL1        0.0903
     35 C         141.2981  140.0520  156.2871 C.3     1  UNL1        0.0419
     36 C         142.7227  140.5191  156.3359 C.ar    1  UNL1        0.0445
     37 C         143.0335  141.9854  156.2798 C.ar    1  UNL1        0.1455
     38 C         144.4580  142.4526  156.3286 C.ar    1  UNL1        0.0579
     39 C         145.5718  141.4533  156.4335 C.ar    1  UNL1        0.1034
     40 N         145.2610  139.9869  156.4897 N.ar    1  UNL1       -0.2291
     41 C         143.8364  139.5198  156.4409 C.ar    1  UNL1        0.1330
     42 N         143.5255  138.0535  156.4970 N.am    1  UNL1       -0.2695
     43 H         144.2565  137.3976  156.5659 H       1  UNL1        0.1562
@<TRIPOS>BOND
     1    32    33    2
     2    33    34    1
     3    34    35    1
     4    35    36    1
     5    36    37   ar
     6    37    31    1
     7    31     1    1
     8     1     2   ar
     9     2     3   ar
    10     3     4   ar
    11     4     5   ar
    12     5     6   ar
    13     5     7    1
    14     7     8    1
    15     8    11    1
    16    11    12   am
    17    12    13    2
    18    12    15    1
    19    15    16   ar
    20    16    17   ar
    21    17    21    1
    22    21    22   ar
    23    22    23   ar
    24    23    24   ar
    25    24    25   ar
    26    17    18   ar
    27    18    19   ar
    28    19    27    1
    29    27    28    1
    30    27    29    1
    31    27    30    1
    32    19    20   ar
    33     8     9    1
    34     9    10    1
    35    37    38   ar
    36    38    39   ar
    37    39    40   ar
    38    40    41   ar
    39    41    42    1
    40    42    33   am
    41    41    36   ar
    42     6     1   ar
    43    20    15   ar
    44    10     4    1
    45    25    21   ar
    46    11    14    1
    47    25    26    1
    48    42    43    1
@<TRIPOS>MOLECULE
*****
 43 48 0 0 0
SMALL
GASTEIGER

@<TRIPOS>ATOM
      1 C         139.6136  143.6496  156.8679 C.ar    1  UNL1        0.1450
      2 C         139.9070  145.1190  156.9370 C.ar    1  UNL1        0.0371
      3 C         140.2465  145.7549  158.2524 C.ar    1  UNL1       -0.0014
      4 C         140.2927  144.9215  159.4987 C.ar    1  UNL1       -0.0258
      5 C         139.9993  143.4521  159.4296 C.ar    1  UNL1       -0.0215
      6 C         139.6598  142.8161  158.1142 C.ar    1  UNL1        0.0330
      7 C         140.0454  142.6187  160.6759 C.3     1  UNL1        0.0457
      8 C         140.3850  143.2546  161.9913 C.3     1  UNL1        0.0765
      9 C         140.6784  144.7240  162.0604 C.3     1  UNL1        0.0246
     10 C         140.6322  145.5575  160.8141 C.3     1  UNL1        0.0277
     11 N         140.4311  142.4212  163.2376 N.am    1  UNL1       -0.3021
     12 C         139.2392  142.3645  164.1465 C.2     1  UNL1        0.2458
     13 O         138.0011  143.1413  163.8090 O.2     1  UNL1       -0.2701
     14 H         141.2437  141.9113  163.4591 H       1  UNL1        0.1497
     15 C         139.2852  141.5310  165.3927 C.ar    1  UNL1        0.0534
     16 C         140.0075  142.0361  166.6065 C.ar    1  UNL1        0.0060
     17 C         140.0536  141.2027  167.8528 C.ar    1  UNL1        0.0172
     18 C         139.3774  139.8641  167.8853 C.ar    1  UNL1        0.0053
     19 C         138.6551  139.3590  166.6716 C.ar    1  UNL1        0.0716
     20 C         138.6090  140.1925  165.4253 C.ar    1  UNL1        0.0084
     21 C         140.7759  141.7078  169.0665 C.ar    1  UNL1        0.0754
     22 C         142.0465  142.5051  169.0682 C.ar    1  UNL1        0.0409
     23 C         142.4103  142.7943  170.4945 C.ar    1  UNL1        0.1214
     24 N         141.3646  142.1757  171.3742 N.ar    1  UNL1       -0.1711
     25 N         140.3545  141.5042  170.4916 N.ar    1  UNL1       -0.2757
     26 H         139.5553  141.0156  170.7946 H       1  UNL1        0.1889
     27 C         137.9789  138.0205  166.7041 C.3     1  UNL1        0.4186
     28 F         137.3027  136.6820  166.7366 F       1  UNL1       -0.1659
     29 F         137.1134  138.4853  167.8376 F       1  UNL1       -0.1659
     30 F         138.8444  137.5557  165.5706 F       1  UNL1       -0.1659
     31 O         139.2741  143.0136  155.5525 O.3     1  UNL1       -0.4537
     32 O         140.0804  136.2036  155.0798 O.2     1  UNL1       -0.2747
     33 C         139.6261  137.6294  155.1831 C.2     1  UNL1        0.2275
     34 C         140.6368  138.7361  155.2424 C.3     1  UNL1        0.0903
     35 C         140.1826  140.1620  155.3458 C.3     1  UNL1        0.0419
     36 C         138.7176  140.4811  155.3898 C.ar    1  UNL1        0.0445
     37 C         138.2634  141.9069  155.4932 C.ar    1  UNL1        0.1455
     38 C         136.7984  142.2260  155.5373 C.ar    1  UNL1        0.0579
     39 C         135.7876  141.1193  155.4780 C.ar    1  UNL1        0.1034
     40 N         136.2418  139.6934  155.3746 N.ar    1  UNL1       -0.2291
     41 C         137.7069  139.3744  155.3306 C.ar    1  UNL1        0.1330
     42 N         138.1611  137.9485  155.2272 N.am    1  UNL1       -0.2695
     43 H         137.4977  137.2222  155.1883 H       1  UNL1        0.1562
@<TRIPOS>BOND
     1    32    33    2
     2    33    34    1
     3    34    35    1
     4    35    36    1
     5    36    37   ar
     6    37    31    1
     7    31     1    1
     8     1     2   ar
     9     2     3   ar
    10     3     4   ar
    11     4     5   ar
    12     5     6   ar
    13     5     7    1
    14     7     8    1
    15     8    11    1
    16    11    12   am
    17    12    13    2
    18    12    15    1
    19    15    16   ar
    20    16    17   ar
    21    17    21    1
    22    21    22   ar
    23    22    23   ar
    24    23    24   ar
    25    24    25   ar
    26    17    18   ar
    27    18    19   ar
    28    19    27    1
    29    27    28    1
    30    27    29    1
    31    27    30    1
    32    19    20   ar
    33     8     9    1
    34     9    10    1
    35    37    38   ar
    36    38    39   ar
    37    39    40   ar
    38    40    41   ar
    39    41    42    1
    40    42    33   am
    41    41    36   ar
    42     6     1   ar
    43    20    15   ar
    44    10     4    1
    45    25    21   ar
    46    11    14    1
    47    25    26    1
    48    42    43    1
@<TRIPOS>MOLECULE
*****
 43 48 0 0 0
SMALL
GASTEIGER

@<TRIPOS>ATOM
      1 C         141.2881  142.4536  164.3125 C.ar    1  UNL1        0.1450
      2 C         142.6538  143.0626  164.4303 C.ar    1  UNL1        0.0371
      3 C         143.6883  142.7936  163.3780 C.ar    1  UNL1       -0.0014
      4 C         143.3571  141.9155  162.2078 C.ar    1  UNL1       -0.0258
      5 C         141.9914  141.3065  162.0899 C.ar    1  UNL1       -0.0215
      6 C         140.9568  141.5755  163.1422 C.ar    1  UNL1        0.0330
      7 C         141.6602  140.4285  160.9197 C.3     1  UNL1        0.0457
      8 C         142.6947  140.1595  159.8674 C.3     1  UNL1        0.0765
      9 C         144.0604  140.7685  159.9853 C.3     1  UNL1        0.0246
     10 C         144.3917  141.6465  161.1555 C.3     1  UNL1        0.0277
     11 N         142.3635  139.2814  158.6972 N.am    1  UNL1       -0.3021
     12 C         142.5677  137.7983  158.7909 C.2     1  UNL1        0.2458
     13 O         143.1031  137.1933  160.0547 O.2     1  UNL1       -0.2701
     14 H         142.0121  139.6785  157.8677 H       1  UNL1        0.1497
     15 C         142.2365  136.9203  157.6207 C.ar    1  UNL1        0.0534
     16 C         142.9987  135.6476  157.3986 C.ar    1  UNL1        0.0060
     17 C         142.6675  134.7695  156.2284 C.ar    1  UNL1        0.0172
     18 C         141.5740  135.1641  155.2804 C.ar    1  UNL1        0.0053
     19 C         140.8119  136.4368  155.5025 C.ar    1  UNL1        0.0716
     20 C         141.1431  137.3149  156.6727 C.ar    1  UNL1        0.0084
     21 C         143.4297  133.4968  156.0063 C.ar    1  UNL1        0.0754
     22 C         142.9449  132.3008  155.2416 C.ar    1  UNL1        0.0409
     23 C         144.0261  131.2615  155.2725 C.ar    1  UNL1        0.1214
     24 N         145.1790  131.8152  156.0563 N.ar    1  UNL1       -0.1711
     25 N         144.8104  133.1967  156.5097 N.ar    1  UNL1       -0.2757
     26 H         145.3755  133.8004  157.0440 H       1  UNL1        0.1889
     27 C         139.7185  136.8314  154.5545 C.3     1  UNL1        0.4186
     28 F         138.6251  137.2261  153.6065 F       1  UNL1       -0.1659
     29 F         140.3853  136.0513  153.4606 F       1  UNL1       -0.1659
     30 F         139.0516  137.6115  155.6484 F       1  UNL1       -0.1659
     31 O         140.2535  142.7226  165.3648 O.3     1  UNL1       -0.4537
     32 O         140.6784  142.1526  172.2018 O.2     1  UNL1       -0.2747
     33 C         140.4634  142.0202  170.7232 C.2     1  UNL1        0.2275
     34 C         140.8984  143.1199  169.8006 C.3     1  UNL1        0.0903
     35 C         140.6834  142.9875  168.3220 C.3     1  UNL1        0.0419
     36 C         140.0335  141.7553  167.7660 C.ar    1  UNL1        0.0445
     37 C         139.8186  141.6228  166.2874 C.ar    1  UNL1        0.1455
     38 C         139.1686  140.3906  165.7314 C.ar    1  UNL1        0.0579
     39 C         138.7336  139.2907  166.6540 C.ar    1  UNL1        0.1034
     40 N         138.9486  139.4232  168.1326 N.ar    1  UNL1       -0.2291
     41 C         139.5986  140.6555  168.6886 C.ar    1  UNL1        0.1330
     42 N         139.8135  140.7879  170.1672 N.am    1  UNL1       -0.2695
     43 H         139.5280  140.0661  170.7727 H       1  UNL1        0.1562
@<TRIPOS>BOND
     1    32    33    2
     2    33    34    1
     3    34    35    1
     4    35    36    1
     5    36    37   ar
     6    37    31    1
     7    31     1    1
     8     1     2   ar
     9     2     3   ar
    10     3     4   ar
    11     4     5   ar
    12     5     6   ar
    13     5     7    1
    14     7     8    1
    15     8    11    1
    16    11    12   am
    17    12    13    2
    18    12    15    1
    19    15    16   ar
    20    16    17   ar
    21    17    21    1
    22    21    22   ar
    23    22    23   ar
    24    23    24   ar
    25    24    25   ar
    26    17    18   ar
    27    18    19   ar
    28    19    27    1
    29    27    28    1
    30    27    29    1
    31    27    30    1
    32    19    20   ar
    33     8     9    1
    34     9    10    1
    35    37    38   ar
    36    38    39   ar
    37    39    40   ar
    38    40    41   ar
    39    41    42    1
    40    42    33   am
    41    41    36   ar
    42     6     1   ar
    43    20    15   ar
    44    10     4    1
    45    25    21   ar
    46    11    14    1
    47    25    26    1
    48    42    43    1
@<TRIPOS>MOLECULE
*****
 43 48 0 0 0
SMALL
GASTEIGER

@<TRIPOS>ATOM
      1 C         140.0735  143.5108  156.7339 C.ar    1  UNL1        0.1450
      2 C         140.1288  145.0097  156.7463 C.ar    1  UNL1        0.0371
      3 C         140.2393  145.7454  158.0488 C.ar    1  UNL1       -0.0014
      4 C         140.2944  144.9822  159.3389 C.ar    1  UNL1       -0.0258
      5 C         140.2391  143.4832  159.3265 C.ar    1  UNL1       -0.0215
      6 C         140.1287  142.7475  158.0240 C.ar    1  UNL1        0.0330
      7 C         140.2942  142.7200  160.6166 C.3     1  UNL1        0.0457
      8 C         140.4047  143.4557  161.9192 C.3     1  UNL1        0.0765
      9 C         140.4600  144.9546  161.9316 C.3     1  UNL1        0.0246
     10 C         140.4049  145.7179  160.6414 C.3     1  UNL1        0.0277
     11 N         140.4598  142.6924  163.2093 N.am    1  UNL1       -0.3021
     12 C         139.1927  142.2048  163.8470 C.2     1  UNL1        0.2458
     13 O         137.8704  142.4805  163.1945 O.2     1  UNL1       -0.2701
     14 H         141.3277  142.5115  163.6375 H       1  UNL1        0.1497
     15 C         139.2478  141.4415  165.1371 C.ar    1  UNL1        0.0534
     16 C         139.9600  142.0226  166.3225 C.ar    1  UNL1        0.0060
     17 C         140.0151  141.2593  167.6125 C.ar    1  UNL1        0.0172
     18 C         139.3580  139.9149  167.7173 C.ar    1  UNL1        0.0053
     19 C         138.6458  139.3339  166.5319 C.ar    1  UNL1        0.0716
     20 C         138.5907  140.0972  165.2417 C.ar    1  UNL1        0.0084
     21 C         140.7272  141.8404  168.7979 C.ar    1  UNL1        0.0754
     22 C         142.1195  142.3989  168.8035 C.ar    1  UNL1        0.0409
     23 C         142.4249  142.8686  170.1949 C.ar    1  UNL1        0.1214
     24 N         141.2215  142.6005  171.0493 N.ar    1  UNL1       -0.1711
     25 N         140.1723  141.9650  170.1859 N.ar    1  UNL1       -0.2757
     26 H         139.2767  141.6798  170.4788 H       1  UNL1        0.1889
     27 C         137.9887  137.9895  166.6365 C.3     1  UNL1        0.4186
     28 F         137.3316  136.6452  166.7412 F       1  UNL1       -0.1659
     29 F         138.8382  137.4864  165.5073 F       1  UNL1       -0.1659
     30 F         137.1393  138.4927  167.7658 F       1  UNL1       -0.1659
     31 O         139.9631  142.7751  155.4313 O.3     1  UNL1       -0.4537
     32 O         133.5429  140.3343  155.1603 O.2     1  UNL1       -0.2747
     33 C         135.0192  140.5923  155.2220 C.2     1  UNL1        0.2275
     34 C         135.5340  142.0010  155.2464 C.3     1  UNL1        0.0903
     35 C         137.0104  142.2590  155.3080 C.3     1  UNL1        0.0419
     36 C         137.9719  141.1084  155.3453 C.ar    1  UNL1        0.0445
     37 C         139.4483  141.3665  155.4069 C.ar    1  UNL1        0.1455
     38 C         140.4099  140.2159  155.4441 C.ar    1  UNL1        0.0579
     39 C         139.8951  138.8071  155.4197 C.ar    1  UNL1        0.1034
     40 N         138.4188  138.5491  155.3580 N.ar    1  UNL1       -0.2291
     41 C         137.4572  139.6998  155.3208 C.ar    1  UNL1        0.1330
     42 N         135.9808  139.4417  155.2592 N.am    1  UNL1       -0.2695
     43 H         135.6430  138.5171  155.2432 H       1  UNL1        0.1562
@<TRIPOS>BOND
     1    32    33    2
     2    33    34    1
     3    34    35    1
     4    35    36    1
     5    36    37   ar
     6    37    31    1
     7    31     1    1
     8     1     2   ar
     9     2     3   ar
    10     3     4   ar
    11     4     5   ar
    12     5     6   ar
    13     5     7    1
    14     7     8    1
    15     8    11    1
    16    11    12   am
    17    12    13    2
    18    12    15    1
    19    15    16   ar
    20    16    17   ar
    21    17    21    1
    22    21    22   ar
    23    22    23   ar
    24    23    24   ar
    25    24    25   ar
    26    17    18   ar
    27    18    19   ar
    28    19    27    1
    29    27    28    1
    30    27    29    1
    31    27    30    1
    32    19    20   ar
    33     8     9    1
    34     9    10    1
    35    37    38   ar
    36    38    39   ar
    37    39    40   ar
    38    40    41   ar
    39    41    42    1
    40    42    33   am
    41    41    36   ar
    42     6     1   ar
    43    20    15   ar
    44    10     4    1
    45    25    21   ar
    46    11    14    1
    47    25    26    1
    48    42    43    1
@<TRIPOS>MOLECULE
*****
 43 48 0 0 0
SMALL
GASTEIGER

@<TRIPOS>ATOM
      1 C         140.6020  142.1947  164.6864 C.ar    1  UNL1        0.1450
      2 C         139.6511  143.1875  165.2865 C.ar    1  UNL1        0.0371
      3 C         139.2616  144.4138  164.5154 C.ar    1  UNL1       -0.0014
      4 C         139.8231  144.6473  163.1442 C.ar    1  UNL1       -0.0258
      5 C         140.7741  143.6545  162.5441 C.ar    1  UNL1       -0.0215
      6 C         141.1635  142.4282  163.3152 C.ar    1  UNL1        0.0330
      7 C         141.3356  143.8880  161.1729 C.3     1  UNL1        0.0457
      8 C         140.9461  145.1143  160.4018 C.3     1  UNL1        0.0765
      9 C         139.9952  146.1071  161.0019 C.3     1  UNL1        0.0246
     10 C         139.4337  145.8736  162.3731 C.3     1  UNL1        0.0277
     11 N         141.5077  145.3478  159.0306 N.am    1  UNL1       -0.3021
     12 C         140.8325  144.7500  157.8319 C.2     1  UNL1        0.2458
     13 O         139.5959  143.9188  158.0044 O.2     1  UNL1       -0.2701
     14 H         142.3193  145.8934  158.9173 H       1  UNL1        0.1497
     15 C         141.3940  144.9835  156.4607 C.ar    1  UNL1        0.0534
     16 C         142.5607  144.1725  155.9799 C.ar    1  UNL1        0.0060
     17 C         143.1222  144.4060  154.6087 C.ar    1  UNL1        0.0172
     18 C         142.5169  145.4504  153.7182 C.ar    1  UNL1        0.0053
     19 C         141.3502  146.2614  154.1990 C.ar    1  UNL1        0.0716
     20 C         140.7888  146.0279  155.5703 C.ar    1  UNL1        0.0084
     21 C         144.2889  143.5950  154.1279 C.ar    1  UNL1        0.0754
     22 C         144.2524  142.5485  153.0538 C.ar    1  UNL1        0.0409
     23 C         145.6379  141.9949  152.8989 C.ar    1  UNL1        0.1214
     24 N         146.5306  142.6992  153.8772 N.ar    1  UNL1       -0.1711
     25 N         145.6968  143.6881  154.6367 N.ar    1  UNL1       -0.2757
     26 H         146.0175  144.2922  155.3449 H       1  UNL1        0.1889
     27 C         140.7450  147.3058  153.3086 C.3     1  UNL1        0.4186
     28 F         140.1398  148.3502  152.4182 F       1  UNL1       -0.1659
     29 F         140.9335  146.4051  152.1241 F       1  UNL1       -0.1659
     30 F         140.5566  148.2065  154.4932 F       1  UNL1       -0.1659
     31 O         140.9914  140.9685  165.4575 O.3     1  UNL1       -0.4537
     32 O         140.5914  142.1256  172.2214 O.2     1  UNL1       -0.2747
     33 C         140.4597  141.6967  170.7901 C.2     1  UNL1        0.2275
     34 C         141.3865  142.2553  169.7514 C.3     1  UNL1        0.0903
     35 C         141.2548  141.8263  168.3201 C.3     1  UNL1        0.0419
     36 C         140.1963  140.8388  167.9275 C.ar    1  UNL1        0.0445
     37 C         140.0646  140.4098  166.4962 C.ar    1  UNL1        0.1455
     38 C         139.0060  139.4223  166.1035 C.ar    1  UNL1        0.0579
     39 C         138.0791  138.8636  167.1422 C.ar    1  UNL1        0.1034
     40 N         138.2108  139.2926  168.5736 N.ar    1  UNL1       -0.2291
     41 C         139.2695  140.2802  168.9662 C.ar    1  UNL1        0.1330
     42 N         139.4012  140.7091  170.3975 N.am    1  UNL1       -0.2695
     43 H         138.7928  140.3425  171.0792 H       1  UNL1        0.1562
@<TRIPOS>BOND
     1    32    33    2
     2    33    34    1
     3    34    35    1
     4    35    36    1
     5    36    37   ar
     6    37    31    1
     7    31     1    1
     8     1     2   ar
     9     2     3   ar
    10     3     4   ar
    11     4     5   ar
    12     5     6   ar
    13     5     7    1
    14     7     8    1
    15     8    11    1
    16    11    12   am
    17    12    13    2
    18    12    15    1
    19    15    16   ar
    20    16    17   ar
    21    17    21    1
    22    21    22   ar
    23    22    23   ar
    24    23    24   ar
    25    24    25   ar
    26    17    18   ar
    27    18    19   ar
    28    19    27    1
    29    27    28    1
    30    27    29    1
    31    27    30    1
    32    19    20   ar
    33     8     9    1
    34     9    10    1
    35    37    38   ar
    36    38    39   ar
    37    39    40   ar
    38    40    41   ar
    39    41    42    1
    40    42    33   am
    41    41    36   ar
    42     6     1   ar
    43    20    15   ar
    44    10     4    1
    45    25    21   ar
    46    11    14    1
    47    25    26    1
    48    42    43    1
@<TRIPOS>MOLECULE
*****
 43 48 0 0 0
SMALL
GASTEIGER

@<TRIPOS>ATOM
      1 C         143.7265  142.4281  164.5968 C.ar    1  UNL1        0.1450
      2 C         145.1040  142.0282  164.1583 C.ar    1  UNL1        0.0371
      3 C         145.4490  142.0038  162.6987 C.ar    1  UNL1       -0.0014
      4 C         144.4164  142.3793  161.6776 C.ar    1  UNL1       -0.0258
      5 C         143.0387  142.7793  162.1161 C.ar    1  UNL1       -0.0215
      6 C         142.6938  142.8037  163.5757 C.ar    1  UNL1        0.0330
      7 C         142.0061  143.1548  161.0950 C.3     1  UNL1        0.0457
      8 C         142.3511  143.1304  159.6354 C.3     1  UNL1        0.0765
      9 C         143.7286  142.7305  159.1969 C.3     1  UNL1        0.0246
     10 C         144.7613  142.3549  160.2180 C.3     1  UNL1        0.0277
     11 N         141.3184  143.5059  158.6143 N.am    1  UNL1       -0.3021
     12 C         141.2965  144.8935  158.0450 C.2     1  UNL1        0.2458
     13 O         142.3073  145.9056  158.4968 O.2     1  UNL1       -0.2701
     14 H         140.6550  142.8417  158.3178 H       1  UNL1        0.1497
     15 C         140.2639  145.2691  157.0240 C.ar    1  UNL1        0.0534
     16 C         139.2203  144.2738  156.6115 C.ar    1  UNL1        0.0060
     17 C         138.1877  144.6493  155.5904 C.ar    1  UNL1        0.0172
     18 C         138.1986  146.0203  154.9818 C.ar    1  UNL1        0.0053
     19 C         139.2422  147.0157  155.3943 C.ar    1  UNL1        0.0716
     20 C         140.2748  146.6401  156.4154 C.ar    1  UNL1        0.0084
     21 C         137.1441  143.6540  155.1779 C.ar    1  UNL1        0.0754
     22 C         136.6900  143.3831  153.7741 C.ar    1  UNL1        0.0409
     23 C         135.6366  142.3164  153.8254 C.ar    1  UNL1        0.1214
     24 N         135.4396  141.9281  155.2608 N.ar    1  UNL1       -0.1711
     25 N         136.3713  142.7547  156.0967 N.ar    1  UNL1       -0.2757
     26 H         136.4600  142.7142  157.0763 H       1  UNL1        0.1889
     27 C         139.2532  148.3866  154.7858 C.3     1  UNL1        0.4186
     28 F         139.2641  149.7576  154.1772 F       1  UNL1       -0.1659
     29 F         140.0902  147.8760  153.6506 F       1  UNL1       -0.1659
     30 F         138.4161  148.8972  155.9209 F       1  UNL1       -0.1659
     31 O         143.3815  142.4525  166.0564 O.3     1  UNL1       -0.4537
     32 O         140.4812  142.1180  172.2794 O.2     1  UNL1       -0.2747
     33 C         140.9319  141.9824  170.8552 C.2     1  UNL1        0.2275
     34 C         142.0294  142.8592  170.3291 C.3     1  UNL1        0.0903
     35 C         142.4801  142.7236  168.9049 C.3     1  UNL1        0.0419
     36 C         141.8333  141.7113  168.0067 C.ar    1  UNL1        0.0445
     37 C         142.2840  141.5758  166.5824 C.ar    1  UNL1        0.1455
     38 C         141.6372  140.5635  165.6842 C.ar    1  UNL1        0.0579
     39 C         140.5397  139.6866  166.2102 C.ar    1  UNL1        0.1034
     40 N         140.0890  139.8222  167.6345 N.ar    1  UNL1       -0.2291
     41 C         140.7358  140.8346  168.5327 C.ar    1  UNL1        0.1330
     42 N         140.2851  140.9701  169.9570 N.am    1  UNL1       -0.2695
     43 H         139.5648  140.3947  170.3022 H       1  UNL1        0.1562
@<TRIPOS>BOND
     1    32    33    2
     2    33    34    1
     3    34    35    1
     4    35    36    1
     5    36    37   ar
     6    37    31    1
     7    31     1    1
     8     1     2   ar
     9     2     3   ar
    10     3     4   ar
    11     4     5   ar
    12     5     6   ar
    13     5     7    1
    14     7     8    1
    15     8    11    1
    16    11    12   am
    17    12    13    2
    18    12    15    1
    19    15    16   ar
    20    16    17   ar
    21    17    21    1
    22    21    22   ar
    23    22    23   ar
    24    23    24   ar
    25    24    25   ar
    26    17    18   ar
    27    18    19   ar
    28    19    27    1
    29    27    28    1
    30    27    29    1
    31    27    30    1
    32    19    20   ar
    33     8     9    1
    34     9    10    1
    35    37    38   ar
    36    38    39   ar
    37    39    40   ar
    38    40    41   ar
    39    41    42    1
    40    42    33   am
    41    41    36   ar
    42     6     1   ar
    43    20    15   ar
    44    10     4    1
    45    25    21   ar
    46    11    14    1
    47    25    26    1
    48    42    43    1
