@<TRIPOS>MOLECULE
*****
 36 38 0 0 0
SMALL
GASTEIGER

@<TRIPOS>ATOM
      1 C         139.5890  142.6426  165.0530 C.2     1  UNL1        0.2521
      2 O         138.4106  143.5676  164.9782 O.2     1  UNL1       -0.2698
      3 N         140.4309  142.4004  163.8354 N.am    1  UNL1       -0.2725
      4 C         141.6094  141.4754  163.9103 C.3     1  UNL1        0.1152
      5 C         142.4513  141.2332  162.6927 C.3     1  UNL1        0.1137
      6 N         142.1147  141.9161  161.4002 N.pl3   1  UNL1       -0.2880
      7 C         140.9362  142.8411  161.3254 C.3     1  UNL1        0.1137
      8 C         140.0944  143.0833  162.5430 C.3     1  UNL1        0.1152
      9 C         142.9566  141.6739  160.1826 C.ar    1  UNL1        0.1594
     10 N         143.9378  142.7144  159.7301 N.ar    1  UNL1       -0.2269
     11 C         144.7796  142.4722  158.5125 C.ar    1  UNL1        0.1043
     12 C         144.6403  141.1895  157.7474 C.ar    1  UNL1        0.0929
     13 C         143.6592  140.1491  158.1998 C.ar    1  UNL1        0.0380
     14 C         142.8173  140.3913  159.4175 C.ar    1  UNL1        0.1715
     15 F         141.8361  139.3508  159.8699 F       1  UNL1       -0.2012
     16 C         145.4822  140.9474  156.5298 C.3     1  UNL1        0.4201
     17 F         146.3241  140.7052  155.3121 F       1  UNL1       -0.1658
     18 F         144.5733  139.8250  156.1245 F       1  UNL1       -0.1658
     19 F         146.3912  142.0697  156.9350 F       1  UNL1       -0.1658
     20 C         139.3506  140.6086  166.6519 C.ar    1  UNL1        0.1427
     21 C         139.6872  139.9258  167.9443 C.ar    1  UNL1        0.0384
     22 C         140.5988  140.5941  168.9304 C.ar    1  UNL1        0.0215
     23 C         141.1738  141.9452  168.6240 C.ar    1  UNL1        0.1061
     24 C         140.8372  142.6280  167.3316 C.ar    1  UNL1        0.0259
     25 C         139.9256  141.9597  166.3455 C.ar    1  UNL1        0.0887
     26 S         142.0854  142.6135  169.6101 S.O2    1  UNL1        0.0105
     27 C         142.9970  143.2818  170.5962 C.3     1  UNL1        0.1816
     28 O         140.9755  142.6392  170.6188 O.2     1  UNL1       -0.1686
     29 O         143.1953  142.5878  168.6015 O.2     1  UNL1       -0.1686
     30 O         138.4390  139.9404  165.6658 O.3     1  UNL1       -0.4790
     31 C         138.2116  137.3703  165.9704 C.3     1  UNL1        0.0472
     32 C         138.7330  138.5458  165.1982 C.3     1  UNL1        0.1658
     33 C         139.5484  138.3267  163.9584 C.3     1  UNL1        0.0368
     34 C         140.5070  137.4771  164.7389 C.3     1  UNL1        0.0036
     35 C         138.5898  139.1762  163.1778 C.3     1  UNL1        0.0036
     36 C         140.3638  138.1076  162.7185 C.3     1  UNL1        0.0036
@<TRIPOS>BOND
     1    32    31    1
     2    32    30    1
     3    30    20    1
     4    20    21   ar
     5    21    22   ar
     6    22    23   ar
     7    23    26    1
     8    26    27    1
     9    26    28    2
    10    26    29    2
    11    23    24   ar
    12    24    25   ar
    13    25     1    1
    14     1     2    2
    15     1     3   am
    16     3     4    1
    17     4     5    1
    18     5     6    1
    19     6     9    1
    20     9    10   ar
    21    10    11   ar
    22    11    12   ar
    23    12    16    1
    24    16    17    1
    25    16    18    1
    26    16    19    1
    27    12    13   ar
    28    13    14   ar
    29    14    15    1
    30     6     7    1
    31     7     8    1
    32    32    33    1
    33    33    34    1
    34    33    35    1
    35    33    36    1
    36    25    20   ar
    37     8     3    1
    38    14     9   ar
@<TRIPOS>MOLECULE
*****
 36 38 0 0 0
SMALL
GASTEIGER

@<TRIPOS>ATOM
      1 C         144.3570  141.3665  164.0141 C.2     1  UNL1        0.2521
      2 O         145.8513  141.2405  163.9793 O.2     1  UNL1       -0.2698
      3 N         143.6304  141.9968  162.8631 N.am    1  UNL1       -0.2725
      4 C         142.1361  142.1228  162.8979 C.3     1  UNL1        0.1152
      5 C         141.4095  142.7531  161.7469 C.3     1  UNL1        0.1137
      6 N         142.1773  143.2575  160.5611 N.pl3   1  UNL1       -0.2880
      7 C         143.6716  143.1315  160.5263 C.3     1  UNL1        0.1137
      8 C         144.3982  142.5012  161.6773 C.3     1  UNL1        0.1152
      9 C         141.4508  143.8878  159.4101 C.ar    1  UNL1        0.1594
     10 N         141.7658  145.2975  159.0058 N.ar    1  UNL1       -0.2269
     11 C         141.0393  145.9279  157.8548 C.ar    1  UNL1        0.1043
     12 C         139.9977  145.1484  157.1081 C.ar    1  UNL1        0.0929
     13 C         139.6826  143.7387  157.5123 C.ar    1  UNL1        0.0380
     14 C         140.4092  143.1084  158.6633 C.ar    1  UNL1        0.1715
     15 F         140.0941  141.6986  159.0676 F       1  UNL1       -0.2012
     16 C         139.2711  145.7787  155.9571 C.3     1  UNL1        0.4201
     17 F         138.5445  146.4090  154.8061 F       1  UNL1       -0.1658
     18 F         140.1801  146.9694  156.0353 F       1  UNL1       -0.1658
     19 F         138.3621  144.5881  155.8788 F       1  UNL1       -0.1658
     20 C         143.1135  139.4401  165.2358 C.ar    1  UNL1        0.1427
     21 C         142.3457  138.9358  166.4216 C.ar    1  UNL1        0.0384
     22 C         142.0537  139.8535  167.5716 C.ar    1  UNL1        0.0215
     23 C         142.5295  141.2756  167.5357 C.ar    1  UNL1        0.1061
     24 C         143.2972  141.7799  166.3499 C.ar    1  UNL1        0.0259
     25 C         143.5892  140.8621  165.1999 C.ar    1  UNL1        0.0887
     26 S         142.2375  142.1934  168.6857 S.O2    1  UNL1        0.0105
     27 C         141.9455  143.1111  169.8357 C.3     1  UNL1        0.1816
     28 O         140.8213  141.7002  168.7197 O.2     1  UNL1       -0.1686
     29 O         143.6537  142.6865  168.6517 O.2     1  UNL1       -0.1686
     30 O         143.4054  138.5223  164.0858 O.3     1  UNL1       -0.4790
     31 C         141.2151  137.2363  163.5392 C.3     1  UNL1        0.0472
     32 C         142.3172  138.1627  163.1182 C.3     1  UNL1        0.1658
     33 C         142.3309  138.7295  161.7294 C.3     1  UNL1        0.0368
     34 C         143.8156  138.5271  161.6614 C.3     1  UNL1        0.0036
     35 C         140.8462  138.9319  161.7974 C.3     1  UNL1        0.0036
     36 C         142.3446  139.2963  160.3407 C.3     1  UNL1        0.0036
@<TRIPOS>BOND
     1    32    31    1
     2    32    30    1
     3    30    20    1
     4    20    21   ar
     5    21    22   ar
     6    22    23   ar
     7    23    26    1
     8    26    27    1
     9    26    28    2
    10    26    29    2
    11    23    24   ar
    12    24    25   ar
    13    25     1    1
    14     1     2    2
    15     1     3   am
    16     3     4    1
    17     4     5    1
    18     5     6    1
    19     6     9    1
    20     9    10   ar
    21    10    11   ar
    22    11    12   ar
    23    12    16    1
    24    16    17    1
    25    16    18    1
    26    16    19    1
    27    12    13   ar
    28    13    14   ar
    29    14    15    1
    30     6     7    1
    31     7     8    1
    32    32    33    1
    33    33    34    1
    34    33    35    1
    35    33    36    1
    36    25    20   ar
    37     8     3    1
    38    14     9   ar
@<TRIPOS>MOLECULE
*****
 36 38 0 0 0
SMALL
GASTEIGER

@<TRIPOS>ATOM
      1 C         142.4085  140.0274  165.0648 C.2     1  UNL1        0.2521
      2 O         143.3951  138.9040  164.9437 O.2     1  UNL1       -0.2698
      3 N         142.0772  140.8671  163.8669 N.am    1  UNL1       -0.2725
      4 C         141.0906  141.9905  163.9881 C.3     1  UNL1        0.1152
      5 C         140.7592  142.8301  162.7901 C.3     1  UNL1        0.1137
      6 N         141.4145  142.5464  161.4709 N.pl3   1  UNL1       -0.2880
      7 C         142.4010  141.4230  161.3497 C.3     1  UNL1        0.1137
      8 C         142.7324  140.5834  162.5477 C.3     1  UNL1        0.1152
      9 C         141.0831  143.3861  160.2729 C.ar    1  UNL1        0.1594
     10 N         141.8261  144.6654  160.0250 N.ar    1  UNL1       -0.2269
     11 C         141.4948  145.5050  158.8270 C.ar    1  UNL1        0.1043
     12 C         140.4204  145.0654  157.8769 C.ar    1  UNL1        0.0929
     13 C         139.6774  143.7862  158.1249 C.ar    1  UNL1        0.0380
     14 C         140.0088  142.9465  159.3229 C.ar    1  UNL1        0.1715
     15 F         139.2657  141.6672  159.5708 F       1  UNL1       -0.2012
     16 C         140.0890  145.9051  156.6790 C.3     1  UNL1        0.4201
     17 F         139.7577  146.7447  155.4810 F       1  UNL1       -0.1658
     18 F         139.6188  147.0071  157.5814 F       1  UNL1       -0.1658
     19 F         140.5592  144.8030  155.7765 F       1  UNL1       -0.1658
     20 C         140.4362  139.6764  166.7192 C.ar    1  UNL1        0.1427
     21 C         139.7811  139.9602  168.0383 C.ar    1  UNL1        0.0384
     22 C         140.4429  140.8787  169.0223 C.ar    1  UNL1        0.0215
     23 C         141.7600  141.5134  168.6872 C.ar    1  UNL1        0.1061
     24 C         142.4152  141.2297  167.3680 C.ar    1  UNL1        0.0259
     25 C         141.7533  140.3111  166.3840 C.ar    1  UNL1        0.0887
     26 S         142.4219  142.4320  169.6711 S.O2    1  UNL1        0.0105
     27 C         143.0838  143.3505  170.6551 C.3     1  UNL1        0.1816
     28 O         143.5501  142.6514  168.7073 O.2     1  UNL1       -0.1686
     29 O         141.2937  142.2125  170.6349 O.2     1  UNL1       -0.1686
     30 O         139.7743  138.7579  165.7352 O.3     1  UNL1       -0.4790
     31 C         138.0011  140.4748  164.9241 C.3     1  UNL1        0.0472
     32 C         138.9187  139.3226  164.6403 C.3     1  UNL1        0.1658
     33 C         138.9807  138.7352  163.2614 C.3     1  UNL1        0.0368
     34 C         139.8411  137.6192  163.7754 C.3     1  UNL1        0.0036
     35 C         138.1202  139.8511  162.7474 C.3     1  UNL1        0.0036
     36 C         139.0425  138.1478  161.8826 C.3     1  UNL1        0.0036
@<TRIPOS>BOND
     1    32    31    1
     2    32    30    1
     3    30    20    1
     4    20    21   ar
     5    21    22   ar
     6    22    23   ar
     7    23    26    1
     8    26    27    1
     9    26    28    2
    10    26    29    2
    11    23    24   ar
    12    24    25   ar
    13    25     1    1
    14     1     2    2
    15     1     3   am
    16     3     4    1
    17     4     5    1
    18     5     6    1
    19     6     9    1
    20     9    10   ar
    21    10    11   ar
    22    11    12   ar
    23    12    16    1
    24    16    17    1
    25    16    18    1
    26    16    19    1
    27    12    13   ar
    28    13    14   ar
    29    14    15    1
    30     6     7    1
    31     7     8    1
    32    32    33    1
    33    33    34    1
    34    33    35    1
    35    33    36    1
    36    25    20   ar
    37     8     3    1
    38    14     9   ar
@<TRIPOS>MOLECULE
*****
 36 38 0 0 0
SMALL
GASTEIGER

@<TRIPOS>ATOM
      1 C         143.5828  142.8262  166.2360 C.2     1  UNL1        0.2521
      2 O         144.9200  143.2800  166.7416 O.2     1  UNL1       -0.2698
      3 N         143.1100  143.2532  164.8779 N.am    1  UNL1       -0.2725
      4 C         141.7727  142.7993  164.3723 C.3     1  UNL1        0.1152
      5 C         141.2999  143.2263  163.0143 C.3     1  UNL1        0.1137
      6 N         142.1646  144.1072  162.1619 N.pl3   1  UNL1       -0.2880
      7 C         143.5018  144.5611  162.6675 C.3     1  UNL1        0.1137
      8 C         143.9746  144.1341  164.0255 C.3     1  UNL1        0.1152
      9 C         141.6918  144.5342  160.8039 C.ar    1  UNL1        0.1594
     10 N         142.3995  144.0447  159.5752 N.ar    1  UNL1       -0.2269
     11 C         141.9268  144.4717  158.2172 C.ar    1  UNL1        0.1043
     12 C         140.7464  145.3883  158.0879 C.ar    1  UNL1        0.0929
     13 C         140.0387  145.8777  159.3166 C.ar    1  UNL1        0.0380
     14 C         140.5115  145.4507  160.6746 C.ar    1  UNL1        0.1715
     15 F         139.8038  145.9402  161.9033 F       1  UNL1       -0.2012
     16 C         140.2736  145.8153  156.7299 C.3     1  UNL1        0.4201
     17 F         139.8009  146.2423  155.3719 F       1  UNL1       -0.1658
     18 F         140.9483  144.6225  156.1200 F       1  UNL1       -0.1658
     19 F         139.5990  147.0081  157.3398 F       1  UNL1       -0.1658
     20 C         142.7363  140.4586  166.8903 C.ar    1  UNL1        0.1427
     21 C         141.8717  139.5778  167.7426 C.ar    1  UNL1        0.0384
     22 C         140.9889  140.1837  168.7931 C.ar    1  UNL1        0.0215
     23 C         140.9707  141.6704  168.9912 C.ar    1  UNL1        0.1061
     24 C         141.8353  142.5512  168.1389 C.ar    1  UNL1        0.0259
     25 C         142.7181  141.9453  167.0884 C.ar    1  UNL1        0.0887
     26 S         140.0879  142.2763  170.0417 S.O2    1  UNL1        0.0105
     27 C         139.2051  142.8822  171.0922 C.3     1  UNL1        0.1816
     28 O         139.9924  140.9463  170.7286 O.2     1  UNL1       -0.1686
     29 O         140.1834  143.6064  169.3548 O.2     1  UNL1       -0.1686
     30 O         143.6191  139.8527  165.8398 O.3     1  UNL1       -0.4790
     31 C         141.9647  138.2568  164.6291 C.3     1  UNL1        0.0472
     32 C         143.0198  139.3215  164.5715 C.3     1  UNL1        0.1658
     33 C         143.4754  139.8549  163.2456 C.3     1  UNL1        0.0368
     34 C         144.8205  140.1649  163.8326 C.3     1  UNL1        0.0036
     35 C         142.1304  139.5448  162.6587 C.3     1  UNL1        0.0036
     36 C         143.9311  140.3882  161.9198 C.3     1  UNL1        0.0036
@<TRIPOS>BOND
     1    32    31    1
     2    32    30    1
     3    30    20    1
     4    20    21   ar
     5    21    22   ar
     6    22    23   ar
     7    23    26    1
     8    26    27    1
     9    26    28    2
    10    26    29    2
    11    23    24   ar
    12    24    25   ar
    13    25     1    1
    14     1     2    2
    15     1     3   am
    16     3     4    1
    17     4     5    1
    18     5     6    1
    19     6     9    1
    20     9    10   ar
    21    10    11   ar
    22    11    12   ar
    23    12    16    1
    24    16    17    1
    25    16    18    1
    26    16    19    1
    27    12    13   ar
    28    13    14   ar
    29    14    15    1
    30     6     7    1
    31     7     8    1
    32    32    33    1
    33    33    34    1
    34    33    35    1
    35    33    36    1
    36    25    20   ar
    37     8     3    1
    38    14     9   ar
@<TRIPOS>MOLECULE
*****
 36 38 0 0 0
SMALL
GASTEIGER

@<TRIPOS>ATOM
      1 C         139.9083  139.1644  164.5239 C.2     1  UNL1        0.2521
      2 O         138.9036  138.0534  164.4441 O.2     1  UNL1       -0.2698
      3 N         140.0257  140.1515  163.4006 N.am    1  UNL1       -0.2725
      4 C         141.0304  141.2625  163.4804 C.3     1  UNL1        0.1152
      5 C         141.1478  142.2496  162.3571 C.3     1  UNL1        0.1137
      6 N         140.2604  142.1258  161.1540 N.pl3   1  UNL1       -0.2880
      7 C         139.2558  141.0148  161.0743 C.3     1  UNL1        0.1137
      8 C         139.1384  140.0277  162.1975 C.3     1  UNL1        0.1152
      9 C         140.3778  143.1129  160.0307 C.ar    1  UNL1        0.1594
     10 N         139.9500  144.5360  160.2351 N.ar    1  UNL1       -0.2269
     11 C         140.0674  145.5232  159.1118 C.ar    1  UNL1        0.1043
     12 C         140.6126  145.0872  157.7841 C.ar    1  UNL1        0.0929
     13 C         141.0405  143.6641  157.5798 C.ar    1  UNL1        0.0380
     14 C         140.9231  142.6770  158.7031 C.ar    1  UNL1        0.1715
     15 F         141.3510  141.2539  158.4987 F       1  UNL1       -0.2012
     16 C         140.7300  146.0743  156.6609 C.3     1  UNL1        0.4201
     17 F         140.8474  147.0615  155.5376 F       1  UNL1       -0.1658
     18 F         142.1668  146.3122  157.0201 F       1  UNL1       -0.1658
     19 F         139.2932  145.8364  156.3016 F       1  UNL1       -0.1658
     20 C         142.2106  138.7939  165.6693 C.ar    1  UNL1        0.1427
     21 C         143.0979  138.9177  166.8723 C.ar    1  UNL1        0.0384
     22 C         142.5702  139.5359  168.1330 C.ar    1  UNL1        0.0215
     23 C         141.1552  140.0302  168.1907 C.ar    1  UNL1        0.1061
     24 C         140.2679  139.9063  166.9877 C.ar    1  UNL1        0.0259
     25 C         140.7956  139.2882  165.7270 C.ar    1  UNL1        0.0887
     26 S         140.6274  140.6483  169.4514 S.O2    1  UNL1        0.0105
     27 C         140.0997  141.2665  170.7121 C.3     1  UNL1        0.1816
     28 O         139.3388  139.9002  169.2788 O.2     1  UNL1       -0.1686
     29 O         141.9160  141.3964  169.6240 O.2     1  UNL1       -0.1686
     30 O         142.7384  138.1757  164.4086 O.3     1  UNL1       -0.4790
     31 C         144.9380  139.5353  164.1576 C.3     1  UNL1        0.0472
     32 C         143.7057  138.9344  163.5492 C.3     1  UNL1        0.1658
     33 C         143.4407  139.0922  162.0812 C.3     1  UNL1        0.0368
     34 C         142.5157  137.9121  162.1212 C.3     1  UNL1        0.0036
     35 C         144.3657  140.2724  162.0411 C.3     1  UNL1        0.0036
     36 C         143.1757  139.2501  160.6132 C.3     1  UNL1        0.0036
@<TRIPOS>BOND
     1    32    31    1
     2    32    30    1
     3    30    20    1
     4    20    21   ar
     5    21    22   ar
     6    22    23   ar
     7    23    26    1
     8    26    27    1
     9    26    28    2
    10    26    29    2
    11    23    24   ar
    12    24    25   ar
    13    25     1    1
    14     1     2    2
    15     1     3   am
    16     3     4    1
    17     4     5    1
    18     5     6    1
    19     6     9    1
    20     9    10   ar
    21    10    11   ar
    22    11    12   ar
    23    12    16    1
    24    16    17    1
    25    16    18    1
    26    16    19    1
    27    12    13   ar
    28    13    14   ar
    29    14    15    1
    30     6     7    1
    31     7     8    1
    32    32    33    1
    33    33    34    1
    34    33    35    1
    35    33    36    1
    36    25    20   ar
    37     8     3    1
    38    14     9   ar
@<TRIPOS>MOLECULE
*****
 36 38 0 0 0
SMALL
GASTEIGER

@<TRIPOS>ATOM
      1 C         138.6538  140.1755  157.6107 C.2     1  UNL1        0.2521
      2 O         138.9851  138.9485  156.8142 O.2     1  UNL1       -0.2698
      3 N         138.7500  140.1467  159.1074 N.am    1  UNL1       -0.2725
      4 C         138.4187  141.3739  159.9040 C.3     1  UNL1        0.1152
      5 C         138.5149  141.3451  161.4006 C.3     1  UNL1        0.1137
      6 N         138.9424  140.0892  162.1006 N.pl3   1  UNL1       -0.2880
      7 C         139.2737  138.8621  161.3041 C.3     1  UNL1        0.1137
      8 C         139.1775  138.8909  159.8074 C.3     1  UNL1        0.1152
      9 C         139.0386  140.0604  163.5973 C.ar    1  UNL1        0.1594
     10 N         139.3822  141.3110  164.3509 N.ar    1  UNL1       -0.2269
     11 C         139.4784  141.2822  165.8476 C.ar    1  UNL1        0.1043
     12 C         139.2310  140.0028  166.5906 C.ar    1  UNL1        0.0929
     13 C         138.8875  138.7522  165.8369 C.ar    1  UNL1        0.0380
     14 C         138.7913  138.7810  164.3403 C.ar    1  UNL1        0.1715
     15 F         138.4478  137.5304  163.5866 F       1  UNL1       -0.2012
     16 C         139.3272  139.9740  168.0872 C.3     1  UNL1        0.4201
     17 F         139.4234  139.9452  169.5838 F       1  UNL1       -0.1658
     18 F         138.0496  139.1909  168.1542 F       1  UNL1       -0.1658
     19 F         140.6049  140.7570  168.0201 F       1  UNL1       -0.1658
     20 C         136.7874  141.6283  156.5355 C.ar    1  UNL1        0.1427
     21 C         136.3600  142.8841  155.8355 C.ar    1  UNL1        0.0384
     22 C         137.3714  143.9431  155.5107 C.ar    1  UNL1        0.0215
     23 C         138.8102  143.7463  155.8859 C.ar    1  UNL1        0.1061
     24 C         139.2377  142.4905  156.5859 C.ar    1  UNL1        0.0259
     25 C         138.2263  141.4314  156.9107 C.ar    1  UNL1        0.0887
     26 S         139.8217  144.8054  155.5611 S.O2    1  UNL1        0.0105
     27 C         140.8331  145.8644  155.2364 C.3     1  UNL1        0.1816
     28 O         138.7436  145.8476  155.6024 O.2     1  UNL1       -0.1686
     29 O         140.8997  143.7632  155.5199 O.2     1  UNL1       -0.1686
     30 O         135.7760  140.5692  156.8602 O.3     1  UNL1       -0.4790
     31 C         135.2401  139.4996  154.5540 C.3     1  UNL1        0.0472
     32 C         134.7759  140.1449  155.8260 C.3     1  UNL1        0.1658
     33 C         133.3114  140.3660  156.0638 C.3     1  UNL1        0.0368
     34 C         133.2423  141.2273  154.8376 C.3     1  UNL1        0.0036
     35 C         133.3804  139.5047  157.2899 C.3     1  UNL1        0.0036
     36 C         131.8470  140.5870  156.3015 C.3     1  UNL1        0.0036
@<TRIPOS>BOND
     1    32    31    1
     2    32    30    1
     3    30    20    1
     4    20    21   ar
     5    21    22   ar
     6    22    23   ar
     7    23    26    1
     8    26    27    1
     9    26    28    2
    10    26    29    2
    11    23    24   ar
    12    24    25   ar
    13    25     1    1
    14     1     2    2
    15     1     3   am
    16     3     4    1
    17     4     5    1
    18     5     6    1
    19     6     9    1
    20     9    10   ar
    21    10    11   ar
    22    11    12   ar
    23    12    16    1
    24    16    17    1
    25    16    18    1
    26    16    19    1
    27    12    13   ar
    28    13    14   ar
    29    14    15    1
    30     6     7    1
    31     7     8    1
    32    32    33    1
    33    33    34    1
    34    33    35    1
    35    33    36    1
    36    25    20   ar
    37     8     3    1
    38    14     9   ar
@<TRIPOS>MOLECULE
*****
 36 38 0 0 0
SMALL
GASTEIGER

@<TRIPOS>ATOM
      1 C         138.9403  139.5446  165.5525 C.2     1  UNL1        0.2521
      2 O         137.6943  138.8873  166.0676 O.2     1  UNL1       -0.2698
      3 N         139.4142  139.2644  164.1572 N.am    1  UNL1       -0.2725
      4 C         140.6603  139.9218  163.6421 C.3     1  UNL1        0.1152
      5 C         141.1341  139.6416  162.2468 C.3     1  UNL1        0.1137
      6 N         140.3619  138.7041  161.3665 N.pl3   1  UNL1       -0.2880
      7 C         139.1158  138.0468  161.8816 C.3     1  UNL1        0.1137
      8 C         138.6420  138.3270  163.2769 C.3     1  UNL1        0.1152
      9 C         140.8357  138.4240  159.9712 C.ar    1  UNL1        0.1594
     10 N         139.9073  138.6224  158.8098 N.ar    1  UNL1       -0.2269
     11 C         140.3811  138.3423  157.4144 C.ar    1  UNL1        0.1043
     12 C         141.7834  137.8637  157.1805 C.ar    1  UNL1        0.0929
     13 C         142.7117  137.6653  158.3418 C.ar    1  UNL1        0.0380
     14 C         142.2379  137.9454  159.7372 C.ar    1  UNL1        0.1715
     15 F         143.1663  137.7469  160.8985 F       1  UNL1       -0.2012
     16 C         142.2572  137.5835  155.7851 C.3     1  UNL1        0.4201
     17 F         142.7311  137.3034  154.3898 F       1  UNL1       -0.1658
     18 F         140.8345  137.4541  155.3280 F       1  UNL1       -0.1658
     19 F         143.6800  137.7130  156.2423 F       1  UNL1       -0.1658
     20 C         139.6207  141.9631  166.2142 C.ar    1  UNL1        0.1427
     21 C         140.3929  142.9005  167.0944 C.ar    1  UNL1        0.0384
     22 C         141.2571  142.3568  168.1933 C.ar    1  UNL1        0.0215
     23 C         141.3490  140.8757  168.4120 C.ar    1  UNL1        0.1061
     24 C         140.5768  139.9383  167.5317 C.ar    1  UNL1        0.0259
     25 C         139.7126  140.4820  166.4328 C.ar    1  UNL1        0.0887
     26 S         142.2132  140.3320  169.5109 S.O2    1  UNL1        0.0105
     27 C         143.0773  139.7883  170.6098 C.3     1  UNL1        0.1816
     28 O         142.9372  139.4733  168.5167 O.2     1  UNL1       -0.1686
     29 O         141.4891  141.1907  170.5051 O.2     1  UNL1       -0.1686
     30 O         138.7565  142.5068  165.1152 O.3     1  UNL1       -0.4790
     31 C         138.4406  145.0240  165.6756 C.3     1  UNL1        0.0472
     32 C         138.8658  143.9495  164.7193 C.3     1  UNL1        0.1658
     33 C         139.4005  144.3176  163.3670 C.3     1  UNL1        0.0368
     34 C         138.1423  143.8062  162.7303 C.3     1  UNL1        0.0036
     35 C         140.6586  144.8291  164.0037 C.3     1  UNL1        0.0036
     36 C         139.9351  144.6858  162.0147 C.3     1  UNL1        0.0036
@<TRIPOS>BOND
     1    32    31    1
     2    32    30    1
     3    30    20    1
     4    20    21   ar
     5    21    22   ar
     6    22    23   ar
     7    23    26    1
     8    26    27    1
     9    26    28    2
    10    26    29    2
    11    23    24   ar
    12    24    25   ar
    13    25     1    1
    14     1     2    2
    15     1     3   am
    16     3     4    1
    17     4     5    1
    18     5     6    1
    19     6     9    1
    20     9    10   ar
    21    10    11   ar
    22    11    12   ar
    23    12    16    1
    24    16    17    1
    25    16    18    1
    26    16    19    1
    27    12    13   ar
    28    13    14   ar
    29    14    15    1
    30     6     7    1
    31     7     8    1
    32    32    33    1
    33    33    34    1
    34    33    35    1
    35    33    36    1
    36    25    20   ar
    37     8     3    1
    38    14     9   ar
@<TRIPOS>MOLECULE
*****
 36 38 0 0 0
SMALL
GASTEIGER

@<TRIPOS>ATOM
      1 C         140.8771  141.7615  162.9499 C.2     1  UNL1        0.2521
      2 O         140.6572  143.2329  162.7583 O.2     1  UNL1       -0.2698
      3 N         141.0673  140.8703  161.7585 N.am    1  UNL1       -0.2725
      4 C         141.2873  139.3988  161.9500 C.3     1  UNL1        0.1152
      5 C         141.4775  138.5076  160.7586 C.3     1  UNL1        0.1137
      6 N         141.4478  139.0877  159.3756 N.pl3   1  UNL1       -0.2880
      7 C         141.2279  140.5591  159.1841 C.3     1  UNL1        0.1137
      8 C         141.0377  141.4504  160.3755 C.3     1  UNL1        0.1152
      9 C         141.6381  138.1965  158.1842 C.ar    1  UNL1        0.1594
     10 N         142.9692  137.5512  157.9352 N.ar    1  UNL1       -0.2269
     11 C         143.1594  136.6600  156.7438 C.ar    1  UNL1        0.1043
     12 C         142.0186  136.4140  155.8014 C.ar    1  UNL1        0.0929
     13 C         140.6876  137.0592  156.0504 C.ar    1  UNL1        0.0380
     14 C         140.4973  137.9505  157.2418 C.ar    1  UNL1        0.1715
     15 F         139.1662  138.5957  157.4909 F       1  UNL1       -0.2012
     16 C         142.2088  135.5227  154.6100 C.3     1  UNL1        0.4201
     17 F         142.3990  134.6315  153.4186 F       1  UNL1       -0.1658
     18 F         143.2100  134.7109  155.3772 F       1  UNL1       -0.1658
     19 F         141.2076  136.3346  153.8428 F       1  UNL1       -0.1658
     20 C         142.1180  141.3666  165.1980 C.ar    1  UNL1        0.1427
     21 C         142.1476  140.7864  166.5810 C.ar    1  UNL1        0.0384
     22 C         140.9660  140.0211  167.0987 C.ar    1  UNL1        0.0215
     23 C         139.7548  139.8358  166.2335 C.ar    1  UNL1        0.1061
     24 C         139.7252  140.4160  164.8506 C.ar    1  UNL1        0.0259
     25 C         140.9068  141.1814  164.3329 C.ar    1  UNL1        0.0887
     26 S         138.5732  139.0704  166.7513 S.O2    1  UNL1        0.0105
     27 C         137.3916  138.3051  167.2690 C.3     1  UNL1        0.1816
     28 O         138.9215  139.4801  168.1516 O.2     1  UNL1       -0.1686
     29 O         138.2250  138.6608  165.3509 O.2     1  UNL1       -0.1686
     30 O         143.2996  142.1320  164.6803 O.3     1  UNL1       -0.4790
     31 C         145.0611  140.2791  164.2180 C.3     1  UNL1        0.0472
     32 C         144.2749  141.4691  163.7534 C.3     1  UNL1        0.1658
     33 C         144.4641  141.9961  162.3618 C.3     1  UNL1        0.0368
     34 C         144.6375  140.5952  161.8547 C.3     1  UNL1        0.0036
     35 C         144.2907  143.3971  162.8689 C.3     1  UNL1        0.0036
     36 C         144.6533  142.5232  160.9703 C.3     1  UNL1        0.0036
@<TRIPOS>BOND
     1    32    31    1
     2    32    30    1
     3    30    20    1
     4    20    21   ar
     5    21    22   ar
     6    22    23   ar
     7    23    26    1
     8    26    27    1
     9    26    28    2
    10    26    29    2
    11    23    24   ar
    12    24    25   ar
    13    25     1    1
    14     1     2    2
    15     1     3   am
    16     3     4    1
    17     4     5    1
    18     5     6    1
    19     6     9    1
    20     9    10   ar
    21    10    11   ar
    22    11    12   ar
    23    12    16    1
    24    16    17    1
    25    16    18    1
    26    16    19    1
    27    12    13   ar
    28    13    14   ar
    29    14    15    1
    30     6     7    1
    31     7     8    1
    32    32    33    1
    33    33    34    1
    34    33    35    1
    35    33    36    1
    36    25    20   ar
    37     8     3    1
    38    14     9   ar
@<TRIPOS>MOLECULE
*****
 36 38 0 0 0
SMALL
GASTEIGER

@<TRIPOS>ATOM
      1 C         142.9144  142.2647  165.5267 C.2     1  UNL1        0.2521
      2 O         144.1698  143.0851  165.5565 O.2     1  UNL1       -0.2698
      3 N         142.1270  142.1445  164.2556 N.am    1  UNL1       -0.2725
      4 C         140.8715  141.3241  164.2259 C.3     1  UNL1        0.1152
      5 C         140.0842  141.2038  162.9548 C.3     1  UNL1        0.1137
      6 N         140.5522  141.9039  161.7135 N.pl3   1  UNL1       -0.2880
      7 C         141.8076  142.7243  161.7433 C.3     1  UNL1        0.1137
      8 C         142.5950  142.8446  163.0144 C.3     1  UNL1        0.1152
      9 C         139.7649  141.7837  160.4425 C.ar    1  UNL1        0.1594
     10 N         139.3760  143.0166  159.6816 N.ar    1  UNL1       -0.2269
     11 C         138.5887  142.8963  158.4105 C.ar    1  UNL1        0.1043
     12 C         138.1901  141.5431  157.9004 C.ar    1  UNL1        0.0929
     13 C         138.5789  140.3103  158.6612 C.ar    1  UNL1        0.0380
     14 C         139.3663  140.4306  159.9323 C.ar    1  UNL1        0.1715
     15 F         139.7552  139.1977  160.6932 F       1  UNL1       -0.2012
     16 C         137.4027  141.4229  156.6293 C.3     1  UNL1        0.4201
     17 F         136.6154  141.3026  155.3583 F       1  UNL1       -0.1658
     18 F         138.4650  142.1895  155.8987 F       1  UNL1       -0.1658
     19 F         136.3404  140.6562  157.3599 F       1  UNL1       -0.1658
     20 C         142.8263  140.1340  167.0107 C.ar    1  UNL1        0.1427
     21 C         142.3583  139.4339  168.2520 C.ar    1  UNL1        0.0384
     22 C         141.5101  140.1645  169.2505 C.ar    1  UNL1        0.0215
     23 C         141.1301  141.5950  169.0078 C.ar    1  UNL1        0.1061
     24 C         141.5982  142.2951  167.7665 C.ar    1  UNL1        0.0259
     25 C         142.4463  141.5646  166.7680 C.ar    1  UNL1        0.0887
     26 S         140.2820  142.3255  170.0063 S.O2    1  UNL1        0.0105
     27 C         139.4338  143.0561  171.0048 C.3     1  UNL1        0.1816
     28 O         140.2930  143.5406  169.1267 O.2     1  UNL1       -0.1686
     29 O         140.2709  141.1105  170.8858 O.2     1  UNL1       -0.1686
     30 O         143.6745  139.4035  166.0122 O.3     1  UNL1       -0.4790
     31 C         141.8359  137.8229  165.0788 C.3     1  UNL1        0.0472
     32 C         143.0314  138.7004  164.8537 C.3     1  UNL1        0.1658
     33 C         143.5839  138.8747  163.4701 C.3     1  UNL1        0.0368
     34 C         144.8025  139.5381  164.0402 C.3     1  UNL1        0.0036
     35 C         142.3654  138.2114  162.9000 C.3     1  UNL1        0.0036
     36 C         144.1364  139.0490  162.0865 C.3     1  UNL1        0.0036
@<TRIPOS>BOND
     1    32    31    1
     2    32    30    1
     3    30    20    1
     4    20    21   ar
     5    21    22   ar
     6    22    23   ar
     7    23    26    1
     8    26    27    1
     9    26    28    2
    10    26    29    2
    11    23    24   ar
    12    24    25   ar
    13    25     1    1
    14     1     2    2
    15     1     3   am
    16     3     4    1
    17     4     5    1
    18     5     6    1
    19     6     9    1
    20     9    10   ar
    21    10    11   ar
    22    11    12   ar
    23    12    16    1
    24    16    17    1
    25    16    18    1
    26    16    19    1
    27    12    13   ar
    28    13    14   ar
    29    14    15    1
    30     6     7    1
    31     7     8    1
    32    32    33    1
    33    33    34    1
    34    33    35    1
    35    33    36    1
    36    25    20   ar
    37     8     3    1
    38    14     9   ar
