@<TRIPOS>MOLECULE
*****
 38 41 0 0 0
SMALL
GASTEIGER

@<TRIPOS>ATOM
      1 C         142.3627  139.8341  162.0521 C.ar    1  UNL1        0.1200
      2 N         141.5988  138.9975  161.0690 N.ar    1  UNL1       -0.2309
      3 C         142.4018  138.9194  159.8044 C.ar    1  UNL1        0.0997
      4 C         143.6620  139.7077  160.0060 C.ar    1  UNL1        0.0961
      5 N         143.6378  140.2730  161.3952 N.ar    1  UNL1       -0.3123
      6 C         142.0129  138.1823  158.5572 C.ar    1  UNL1        0.0193
      7 C         140.7631  138.5627  157.8200 C.ar    1  UNL1        0.0038
      8 C         140.3742  137.8258  156.5729 C.ar    1  UNL1        0.0296
      9 C         141.2351  136.7082  156.0628 C.ar    1  UNL1        0.1440
     10 F         140.8462  135.9712  154.8156 F       1  UNL1       -0.2042
     11 C         142.4848  136.3278  156.7999 C.ar    1  UNL1        0.0988
     12 C         142.8737  137.0648  158.0472 C.ar    1  UNL1        0.0077
     13 C         143.3457  135.2103  156.2899 C.3     1  UNL1        0.4207
     14 F         144.2065  134.0928  155.7799 F       1  UNL1       -0.1658
     15 F         144.3708  136.2070  155.8364 F       1  UNL1       -0.1658
     16 F         142.3205  134.2136  156.7434 F       1  UNL1       -0.1658
     17 N         141.0581  140.8490  166.2376 N.pl3   1  UNL1       -0.2931
     18 C         141.9585  139.6737  165.9969 C.3     1  UNL1        0.0926
     19 C         142.3934  139.3354  164.6017 C.3     1  UNL1        0.0290
     20 C         141.9278  140.1724  163.4473 C.3     1  UNL1        0.0603
     21 C         141.0274  141.3477  163.6880 C.3     1  UNL1        0.0290
     22 C         140.5925  141.6860  165.0832 C.3     1  UNL1        0.0926
     23 C         139.5640  140.3674  168.3078 C.ar    1  UNL1        0.0628
     24 C         139.1292  140.7057  169.7029 C.ar    1  UNL1        0.1298
     25 N         138.0699  139.8857  170.3780 N.pl3   1  UNL1       -0.3425
     26 N         139.7536  141.8639  170.4231 N.ar    1  UNL1       -0.2094
     27 C         140.8129  142.6838  169.7481 C.ar    1  UNL1        0.2012
     28 N         141.2477  142.3455  168.3529 N.ar    1  UNL1       -0.2089
     29 C         140.6232  141.1873  167.6328 C.ar    1  UNL1        0.1361
     30 H         137.6600  139.1256  169.9054 H       1  UNL1        0.1437
     31 H         137.7845  140.1078  171.2937 H       1  UNL1        0.1437
     32 C         138.0214  139.4544  166.4272 C.2     1  UNL1        0.0002
     33 C         138.9395  139.2092  167.5877 C.2     1  UNL1        0.0056
     34 C         144.7018  141.1273  162.0181 C.3     1  UNL1        0.1245
     35 C         144.5523  142.6197  162.0329 C.3     1  UNL1        0.0970
     36 N         144.2035  143.3259  163.3095 N.3     1  UNL1       -0.2687
     37 C         143.5756  144.6874  163.2659 C.3     1  UNL1        0.0897
     38 C         144.4827  142.6706  164.6296 C.3     1  UNL1        0.0897
@<TRIPOS>BOND
     1    32    33    2
     2    33    23    1
     3    23    24   ar
     4    24    25    1
     5    24    26   ar
     6    26    27   ar
     7    27    28   ar
     8    28    29   ar
     9    29    17    1
    10    17    18    1
    11    18    19    1
    12    19    20    1
    13    20     1    1
    14     1     2   ar
    15     2     3   ar
    16     3     6    1
    17     6     7   ar
    18     7     8   ar
    19     8     9   ar
    20     9    10    1
    21     9    11   ar
    22    11    13    1
    23    13    14    1
    24    13    15    1
    25    13    16    1
    26    11    12   ar
    27     3     4   ar
    28     4     5   ar
    29     5    34    1
    30    34    35    1
    31    35    36    1
    32    36    37    1
    33    36    38    1
    34    20    21    1
    35    21    22    1
    36    29    23   ar
    37    22    17    1
    38     5     1   ar
    39    12     6   ar
    40    25    30    1
    41    25    31    1
@<TRIPOS>MOLECULE
*****
 38 41 0 0 0
SMALL
GASTEIGER

@<TRIPOS>ATOM
      1 C         142.2887  139.4129  162.3440 C.ar    1  UNL1        0.1200
      2 N         141.5331  138.7386  161.2376 N.ar    1  UNL1       -0.2309
      3 C         142.4374  138.6526  160.0440 C.ar    1  UNL1        0.0997
      4 C         143.7521  139.2739  160.4127 C.ar    1  UNL1        0.0961
      5 N         143.6601  139.7437  161.8343 N.ar    1  UNL1       -0.3123
      6 C         142.0885  138.0511  158.7149 C.ar    1  UNL1        0.0193
      7 C         140.9054  138.5624  157.9476 C.ar    1  UNL1        0.0038
      8 C         140.5564  137.9610  156.6186 C.ar    1  UNL1        0.0296
      9 C         141.3907  136.8480  156.0567 C.ar    1  UNL1        0.1440
     10 F         141.0418  136.2465  154.7277 F       1  UNL1       -0.2042
     11 C         142.5738  136.3367  156.8240 C.ar    1  UNL1        0.0988
     12 C         142.9227  136.9382  158.1531 C.ar    1  UNL1        0.0077
     13 C         143.4080  135.2238  156.2623 C.3     1  UNL1        0.4207
     14 F         144.2421  134.1109  155.7005 F       1  UNL1       -0.1658
     15 F         142.4204  134.2213  156.7818 F       1  UNL1       -0.1658
     16 F         144.3955  136.2262  155.7428 F       1  UNL1       -0.1658
     17 N         140.7172  140.2896  166.4686 N.pl3   1  UNL1       -0.2931
     18 C         140.1729  141.0330  165.2849 C.3     1  UNL1        0.0926
     19 C         140.6967  140.7408  163.9101 C.3     1  UNL1        0.0290
     20 C         141.7649  139.7051  163.7189 C.3     1  UNL1        0.0603
     21 C         142.3091  138.9617  164.9025 C.3     1  UNL1        0.0290
     22 C         141.7852  139.2539  166.2774 C.3     1  UNL1        0.0926
     23 C         140.7875  141.6975  168.6510 C.ar    1  UNL1        0.0628
     24 C         140.2636  141.9897  170.0258 C.ar    1  UNL1        0.1298
     25 N         140.8578  143.1054  170.8334 N.pl3   1  UNL1       -0.3425
     26 N         139.1455  141.1662  170.5930 N.ar    1  UNL1       -0.2094
     27 C         138.5513  140.0505  169.7855 C.ar    1  UNL1        0.2012
     28 N         139.0752  139.7583  168.4107 N.ar    1  UNL1       -0.2089
     29 C         140.1933  140.5818  167.8434 C.ar    1  UNL1        0.1361
     30 H         141.5917  143.6459  170.4611 H       1  UNL1        0.1437
     31 H         140.5140  143.2972  171.7357 H       1  UNL1        0.1437
     32 C         143.3076  142.3253  168.5798 C.2     1  UNL1        0.0002
     33 C         141.9056  142.5209  168.0837 C.2     1  UNL1        0.0056
     34 C         144.7484  140.4248  162.6099 C.3     1  UNL1        0.1245
     35 C         145.0044  141.8899  162.4148 C.3     1  UNL1        0.0970
     36 N         144.3899  142.8896  163.3491 N.3     1  UNL1       -0.2687
     37 C         144.0830  142.5025  164.7654 C.3     1  UNL1        0.0897
     38 C         144.0822  144.2763  162.8671 C.3     1  UNL1        0.0897
@<TRIPOS>BOND
     1    32    33    2
     2    33    23    1
     3    23    24   ar
     4    24    25    1
     5    24    26   ar
     6    26    27   ar
     7    27    28   ar
     8    28    29   ar
     9    29    17    1
    10    17    18    1
    11    18    19    1
    12    19    20    1
    13    20     1    1
    14     1     2   ar
    15     2     3   ar
    16     3     6    1
    17     6     7   ar
    18     7     8   ar
    19     8     9   ar
    20     9    10    1
    21     9    11   ar
    22    11    13    1
    23    13    14    1
    24    13    15    1
    25    13    16    1
    26    11    12   ar
    27     3     4   ar
    28     4     5   ar
    29     5    34    1
    30    34    35    1
    31    35    36    1
    32    36    37    1
    33    36    38    1
    34    20    21    1
    35    21    22    1
    36    29    23   ar
    37    22    17    1
    38     5     1   ar
    39    12     6   ar
    40    25    30    1
    41    25    31    1
@<TRIPOS>MOLECULE
*****
 38 41 0 0 0
SMALL
GASTEIGER

@<TRIPOS>ATOM
      1 C         142.6823  139.3648  161.8312 C.ar    1  UNL1        0.1200
      2 N         142.0100  138.3815  160.9196 N.ar    1  UNL1       -0.2309
      3 C         142.5479  138.5902  159.5350 C.ar    1  UNL1        0.0997
      4 C         143.5527  139.7026  159.5909 C.ar    1  UNL1        0.0961
      5 N         143.6358  140.1813  161.0100 N.ar    1  UNL1       -0.3123
      6 C         142.1507  137.8216  158.3097 C.ar    1  UNL1        0.0193
      7 C         140.9274  138.2197  157.5383 C.ar    1  UNL1        0.0038
      8 C         140.5302  137.4512  156.3130 C.ar    1  UNL1        0.0296
      9 C         141.3563  136.2843  155.8590 C.ar    1  UNL1        0.1440
     10 F         140.9592  135.5157  154.6337 F       1  UNL1       -0.2042
     11 C         142.5796  135.8861  156.6304 C.ar    1  UNL1        0.0988
     12 C         142.9768  136.6548  157.8557 C.ar    1  UNL1        0.0077
     13 C         143.4057  134.7193  156.1764 C.3     1  UNL1        0.4207
     14 F         144.2318  133.5525  155.7225 F       1  UNL1       -0.1658
     15 F         144.1248  135.6067  155.2042 F       1  UNL1       -0.1658
     16 F         142.6865  133.8319  157.1487 F       1  UNL1       -0.1658
     17 N         141.9651  139.7905  166.2532 N.pl3   1  UNL1       -0.2931
     18 C         142.3913  138.4687  165.6864 C.3     1  UNL1        0.0926
     19 C         142.6304  138.3268  164.2124 C.3     1  UNL1        0.0290
     20 C         142.4432  139.5067  163.3052 C.3     1  UNL1        0.0603
     21 C         142.0170  140.8284  163.8720 C.3     1  UNL1        0.0290
     22 C         141.7779  140.9703  165.3461 C.3     1  UNL1        0.0926
     23 C         140.3326  140.1326  168.2452 C.ar    1  UNL1        0.0628
     24 C         140.0935  140.2744  169.7192 C.ar    1  UNL1        0.1298
     25 N         138.7001  140.4747  170.2372 N.pl3   1  UNL1       -0.3425
     26 N         141.2479  140.2161  170.6753 N.ar    1  UNL1       -0.2094
     27 C         142.6413  140.0158  170.1573 C.ar    1  UNL1        0.2012
     28 N         142.8803  139.8740  168.6834 N.ar    1  UNL1       -0.2089
     29 C         141.7260  139.9323  167.7273 C.ar    1  UNL1        0.1361
     30 H         137.9424  140.5130  169.6098 H       1  UNL1        0.1437
     31 H         138.5432  140.5678  171.2047 H       1  UNL1        0.1437
     32 C         138.4474  138.9347  166.9181 C.2     1  UNL1        0.0002
     33 C         139.1782  140.1909  167.2892 C.2     1  UNL1        0.0056
     34 C         144.5175  141.2830  161.5186 C.3     1  UNL1        0.1245
     35 C         144.4033  142.6624  160.9406 C.3     1  UNL1        0.0970
     36 N         143.5735  143.7007  161.6358 N.3     1  UNL1       -0.2687
     37 C         142.2066  144.0381  161.1184 C.3     1  UNL1        0.0897
     38 C         144.1105  144.4015  162.8484 C.3     1  UNL1        0.0897
@<TRIPOS>BOND
     1    32    33    2
     2    33    23    1
     3    23    24   ar
     4    24    25    1
     5    24    26   ar
     6    26    27   ar
     7    27    28   ar
     8    28    29   ar
     9    29    17    1
    10    17    18    1
    11    18    19    1
    12    19    20    1
    13    20     1    1
    14     1     2   ar
    15     2     3   ar
    16     3     6    1
    17     6     7   ar
    18     7     8   ar
    19     8     9   ar
    20     9    10    1
    21     9    11   ar
    22    11    13    1
    23    13    14    1
    24    13    15    1
    25    13    16    1
    26    11    12   ar
    27     3     4   ar
    28     4     5   ar
    29     5    34    1
    30    34    35    1
    31    35    36    1
    32    36    37    1
    33    36    38    1
    34    20    21    1
    35    21    22    1
    36    29    23   ar
    37    22    17    1
    38     5     1   ar
    39    12     6   ar
    40    25    30    1
    41    25    31    1
@<TRIPOS>MOLECULE
*****
 38 41 0 0 0
SMALL
GASTEIGER

@<TRIPOS>ATOM
      1 C         141.3401  141.1383  163.1383 C.ar    1  UNL1        0.1200
      2 N         142.1700  141.3910  164.3620 N.ar    1  UNL1       -0.2309
      3 C         141.2434  141.7602  165.4824 C.ar    1  UNL1        0.0997
      4 C         139.8408  141.7357  164.9511 C.ar    1  UNL1        0.0961
      5 N         139.9006  141.3513  163.5024 N.ar    1  UNL1       -0.3123
      6 C         141.6483  142.0951  166.8873 C.ar    1  UNL1        0.0193
      7 C         143.0917  142.0240  167.2891 C.ar    1  UNL1        0.0038
      8 C         143.4967  142.3589  168.6939 C.ar    1  UNL1        0.0296
      9 C         142.4581  142.7650  169.6973 C.ar    1  UNL1        0.1440
     10 F         142.8629  143.0999  171.1022 F       1  UNL1       -0.2042
     11 C         141.0146  142.8361  169.2955 C.ar    1  UNL1        0.0988
     12 C         140.6097  142.5012  167.8906 C.ar    1  UNL1        0.0077
     13 C         139.9761  143.2421  170.2988 C.3     1  UNL1        0.4207
     14 F         138.9375  143.6482  171.3020 F       1  UNL1       -0.1658
     15 F         140.4010  144.6739  170.1592 F       1  UNL1       -0.1658
     16 F         139.5511  141.8104  170.4383 F       1  UNL1       -0.1658
     17 N         142.8959  139.9498  159.0865 N.pl3   1  UNL1       -0.2931
     18 C         141.9178  141.0801  159.2124 C.3     1  UNL1        0.0926
     19 C         141.3992  141.4763  160.5630 C.3     1  UNL1        0.0290
     20 C         141.8587  140.7421  161.7878 C.3     1  UNL1        0.0603
     21 C         142.8368  139.6119  161.6619 C.3     1  UNL1        0.0290
     22 C         143.3554  139.2157  160.3112 C.3     1  UNL1        0.0926
     23 C         142.7319  138.4667  156.9597 C.ar    1  UNL1        0.0628
     24 C         143.2505  138.0706  155.6091 C.ar    1  UNL1        0.1298
     25 N         142.5679  136.9835  154.8328 N.pl3   1  UNL1       -0.3425
     26 N         144.4516  138.7615  155.0347 N.ar    1  UNL1       -0.2094
     27 C         145.1341  139.8485  155.8109 C.ar    1  UNL1        0.2012
     28 N         144.6155  140.2446  157.1614 N.ar    1  UNL1       -0.2089
     29 C         143.4144  139.5537  157.7359 C.ar    1  UNL1        0.1361
     30 H         141.7796  136.5301  155.2098 H       1  UNL1        0.1437
     31 H         142.9083  136.7236  153.9464 H       1  UNL1        0.1437
     32 C         140.1538  138.2836  157.2242 C.2     1  UNL1        0.0002
     33 C         141.5308  137.7758  157.5341 C.2     1  UNL1        0.0056
     34 C         138.7270  141.2056  162.5797 C.3     1  UNL1        0.1245
     35 C         138.0373  139.8802  162.4470 C.3     1  UNL1        0.0970
     36 N         138.8439  138.6164  162.3996 N.3     1  UNL1       -0.2687
     37 C         139.4058  138.1338  161.0953 C.3     1  UNL1        0.0897
     38 C         139.0884  137.8351  163.6565 C.3     1  UNL1        0.0897
@<TRIPOS>BOND
     1    32    33    2
     2    33    23    1
     3    23    24   ar
     4    24    25    1
     5    24    26   ar
     6    26    27   ar
     7    27    28   ar
     8    28    29   ar
     9    29    17    1
    10    17    18    1
    11    18    19    1
    12    19    20    1
    13    20     1    1
    14     1     2   ar
    15     2     3   ar
    16     3     6    1
    17     6     7   ar
    18     7     8   ar
    19     8     9   ar
    20     9    10    1
    21     9    11   ar
    22    11    13    1
    23    13    14    1
    24    13    15    1
    25    13    16    1
    26    11    12   ar
    27     3     4   ar
    28     4     5   ar
    29     5    34    1
    30    34    35    1
    31    35    36    1
    32    36    37    1
    33    36    38    1
    34    20    21    1
    35    21    22    1
    36    29    23   ar
    37    22    17    1
    38     5     1   ar
    39    12     6   ar
    40    25    30    1
    41    25    31    1
@<TRIPOS>MOLECULE
*****
 38 41 0 0 0
SMALL
GASTEIGER

@<TRIPOS>ATOM
      1 C         141.5087  140.8910  162.8064 C.ar    1  UNL1        0.1200
      2 N         141.4870  140.3286  164.1968 N.ar    1  UNL1       -0.2309
      3 C         141.0926  141.4297  165.1361 C.ar    1  UNL1        0.0997
      4 C         140.8706  142.6726  164.3261 C.ar    1  UNL1        0.0961
      5 N         141.1277  142.3396  162.8863 N.ar    1  UNL1       -0.3123
      6 C         140.9460  141.3091  166.6240 C.ar    1  UNL1        0.0193
      7 C         139.9535  140.3456  167.2042 C.ar    1  UNL1        0.0038
      8 C         139.8068  140.2249  168.6920 C.ar    1  UNL1        0.0296
      9 C         140.6527  141.0679  169.5999 C.ar    1  UNL1        0.1440
     10 F         140.5061  140.9473  171.0878 F       1  UNL1       -0.2042
     11 C         141.6452  142.0313  169.0197 C.ar    1  UNL1        0.0988
     12 C         141.7918  142.1519  167.5318 C.ar    1  UNL1        0.0077
     13 C         142.4911  142.8742  169.9275 C.3     1  UNL1        0.4207
     14 F         143.3370  143.7171  170.8352 F       1  UNL1       -0.1658
     15 F         141.3884  143.8873  170.0143 F       1  UNL1       -0.1658
     16 F         143.5938  141.8610  169.8407 F       1  UNL1       -0.1658
     17 N         142.5364  138.6293  159.0543 N.pl3   1  UNL1       -0.2931
     18 C         141.1134  139.0139  159.3322 C.3     1  UNL1        0.0926
     19 C         140.7708  139.7678  160.5829 C.3     1  UNL1        0.0290
     20 C         141.8513  140.1371  161.5558 C.3     1  UNL1        0.0603
     21 C         143.2742  139.7524  161.2778 C.3     1  UNL1        0.0290
     22 C         143.6168  138.9985  160.0271 C.3     1  UNL1        0.0926
     23 C         143.3161  138.6182  156.5760 C.ar    1  UNL1        0.0628
     24 C         143.6586  137.8643  155.3254 C.ar    1  UNL1        0.1298
     25 N         144.0959  138.6071  154.0977 N.pl3   1  UNL1       -0.3425
     26 N         143.5639  136.3674  155.3022 N.ar    1  UNL1       -0.2094
     27 C         143.1266  135.6245  156.5297 C.ar    1  UNL1        0.2012
     28 N         142.7841  136.3785  157.7804 N.ar    1  UNL1       -0.2089
     29 C         142.8789  137.8753  157.8036 C.ar    1  UNL1        0.1361
     30 H         144.1581  139.5895  154.1129 H       1  UNL1        0.1437
     31 H         144.3207  138.1123  153.2769 H       1  UNL1        0.1437
     32 C         144.7056  140.7790  156.9635 C.2     1  UNL1        0.0002
     33 C         143.4109  140.1150  156.5992 C.2     1  UNL1        0.0056
     34 C         141.0224  143.2887  161.7295 C.3     1  UNL1        0.1245
     35 C         142.0729  144.3394  161.5233 C.3     1  UNL1        0.0970
     36 N         143.3881  144.2353  162.2371 N.3     1  UNL1       -0.2687
     37 C         143.6623  145.0975  163.4335 C.3     1  UNL1        0.0897
     38 C         144.4290  143.2691  161.7544 C.3     1  UNL1        0.0897
@<TRIPOS>BOND
     1    32    33    2
     2    33    23    1
     3    23    24   ar
     4    24    25    1
     5    24    26   ar
     6    26    27   ar
     7    27    28   ar
     8    28    29   ar
     9    29    17    1
    10    17    18    1
    11    18    19    1
    12    19    20    1
    13    20     1    1
    14     1     2   ar
    15     2     3   ar
    16     3     6    1
    17     6     7   ar
    18     7     8   ar
    19     8     9   ar
    20     9    10    1
    21     9    11   ar
    22    11    13    1
    23    13    14    1
    24    13    15    1
    25    13    16    1
    26    11    12   ar
    27     3     4   ar
    28     4     5   ar
    29     5    34    1
    30    34    35    1
    31    35    36    1
    32    36    37    1
    33    36    38    1
    34    20    21    1
    35    21    22    1
    36    29    23   ar
    37    22    17    1
    38     5     1   ar
    39    12     6   ar
    40    25    30    1
    41    25    31    1
@<TRIPOS>MOLECULE
*****
 38 41 0 0 0
SMALL
GASTEIGER

@<TRIPOS>ATOM
      1 C         139.7347  141.5592  163.8299 C.ar    1  UNL1        0.1200
      2 N         140.3387  141.9105  165.1572 N.ar    1  UNL1       -0.2309
      3 C         139.7856  140.9658  166.1828 C.ar    1  UNL1        0.0997
      4 C         138.8397  140.0307  165.4892 C.ar    1  UNL1        0.0961
      5 N         138.8083  140.3974  164.0351 N.ar    1  UNL1       -0.3123
      6 C         140.1196  140.9577  167.6451 C.ar    1  UNL1        0.0193
      7 C         139.3005  140.1374  168.5970 C.ar    1  UNL1        0.0038
      8 C         139.6345  140.1292  170.0592 C.ar    1  UNL1        0.0296
      9 C         140.7878  140.9414  170.5697 C.ar    1  UNL1        0.1440
     10 F         141.1218  140.9333  172.0320 F       1  UNL1       -0.2042
     11 C         141.6069  141.7617  169.6178 C.ar    1  UNL1        0.0988
     12 C         141.2728  141.7699  168.1555 C.ar    1  UNL1        0.0077
     13 C         142.7600  142.5739  170.1282 C.3     1  UNL1        0.4207
     14 F         143.9132  143.3861  170.6386 F       1  UNL1       -0.1658
     15 F         141.8901  143.7957  170.1496 F       1  UNL1       -0.1658
     16 F         143.6300  141.3522  170.1069 F       1  UNL1       -0.1658
     17 N         140.5576  143.6276  159.9191 N.pl3   1  UNL1       -0.2931
     18 C         139.6461  144.2634  160.9266 C.3     1  UNL1        0.0926
     19 C         139.3718  143.5739  162.2301 C.3     1  UNL1        0.0290
     20 C         140.0090  142.2486  162.5263 C.3     1  UNL1        0.0603
     21 C         140.9205  141.6129  161.5189 C.3     1  UNL1        0.0290
     22 C         141.1948  142.3024  160.2152 C.3     1  UNL1        0.0926
     23 C         139.9691  144.0344  157.4214 C.ar    1  UNL1        0.0628
     24 C         140.2434  144.7239  156.1179 C.ar    1  UNL1        0.1298
     25 N         139.3806  144.4412  154.9238 N.pl3   1  UNL1       -0.3425
     26 N         141.3804  145.6961  156.0083 N.ar    1  UNL1       -0.2094
     27 C         142.2432  145.9788  157.2023 C.ar    1  UNL1        0.2012
     28 N         141.9689  145.2893  158.5059 N.ar    1  UNL1       -0.2089
     29 C         140.8318  144.3171  158.6154 C.ar    1  UNL1        0.1361
     30 H         138.6343  143.8032  154.9957 H       1  UNL1        0.1437
     31 H         139.5606  144.8938  154.0682 H       1  UNL1        0.1437
     32 C         139.0576  141.6084  157.2388 C.2     1  UNL1        0.0002
     33 C         138.8320  143.0622  157.5310 C.2     1  UNL1        0.0056
     34 C         137.9936  139.7211  162.9727 C.3     1  UNL1        0.1245
     35 C         138.3773  138.3539  162.4898 C.3     1  UNL1        0.0970
     36 N         139.5990  138.1747  161.6381 N.3     1  UNL1       -0.2687
     37 C         140.8953  137.7545  162.2651 C.3     1  UNL1        0.0897
     38 C         139.5244  138.4157  160.1595 C.3     1  UNL1        0.0897
@<TRIPOS>BOND
     1    32    33    2
     2    33    23    1
     3    23    24   ar
     4    24    25    1
     5    24    26   ar
     6    26    27   ar
     7    27    28   ar
     8    28    29   ar
     9    29    17    1
    10    17    18    1
    11    18    19    1
    12    19    20    1
    13    20     1    1
    14     1     2   ar
    15     2     3   ar
    16     3     6    1
    17     6     7   ar
    18     7     8   ar
    19     8     9   ar
    20     9    10    1
    21     9    11   ar
    22    11    13    1
    23    13    14    1
    24    13    15    1
    25    13    16    1
    26    11    12   ar
    27     3     4   ar
    28     4     5   ar
    29     5    34    1
    30    34    35    1
    31    35    36    1
    32    36    37    1
    33    36    38    1
    34    20    21    1
    35    21    22    1
    36    29    23   ar
    37    22    17    1
    38     5     1   ar
    39    12     6   ar
    40    25    30    1
    41    25    31    1
@<TRIPOS>MOLECULE
*****
 38 41 0 0 0
SMALL
GASTEIGER

@<TRIPOS>ATOM
      1 C         142.2361  139.5692  162.7124 C.ar    1  UNL1        0.1200
      2 N         142.9630  140.0968  161.5110 N.ar    1  UNL1       -0.2309
      3 C         142.6381  139.2097  160.3460 C.ar    1  UNL1        0.0997
      4 C         141.7104  138.1336  160.8273 C.ar    1  UNL1        0.0961
      5 N         141.4620  138.3558  162.2898 N.ar    1  UNL1       -0.3123
      6 C         143.1508  139.3702  158.9455 C.ar    1  UNL1        0.0193
      7 C         143.9230  140.5989  158.5658 C.ar    1  UNL1        0.0038
      8 C         144.4358  140.7595  157.1654 C.ar    1  UNL1        0.0296
      9 C         144.1763  139.6914  156.1446 C.ar    1  UNL1        0.1440
     10 F         144.6890  139.8520  154.7442 F       1  UNL1       -0.2042
     11 C         143.4041  138.4628  156.5243 C.ar    1  UNL1        0.0988
     12 C         142.8913  138.3022  157.9248 C.ar    1  UNL1        0.0077
     13 C         143.1446  137.3948  155.5035 C.3     1  UNL1        0.4207
     14 F         142.8851  136.3268  154.4827 F       1  UNL1       -0.1658
     15 F         144.5947  137.0124  155.5351 F       1  UNL1       -0.1658
     16 F         141.6945  137.7773  155.4720 F       1  UNL1       -0.1658
     17 N         142.3568  141.3189  166.8565 N.pl3   1  UNL1       -0.2931
     18 C         142.7377  139.8849  166.6365 C.3     1  UNL1        0.0926
     19 C         142.6975  139.3016  165.2551 C.3     1  UNL1        0.0290
     20 C         142.2764  140.1524  164.0937 C.3     1  UNL1        0.0603
     21 C         141.8955  141.5865  164.3137 C.3     1  UNL1        0.0290
     22 C         141.9357  142.1697  165.6952 C.3     1  UNL1        0.0926
     23 C         141.1459  141.9632  169.0630 C.ar    1  UNL1        0.0628
     24 C         141.1862  142.5465  170.4443 C.ar    1  UNL1        0.1298
     25 N         139.9350  142.6075  171.2695 N.pl3   1  UNL1       -0.3425
     26 N         142.4777  143.0686  171.0006 N.ar    1  UNL1       -0.2094
     27 C         143.7288  143.0076  170.1756 C.ar    1  UNL1        0.2012
     28 N         143.6886  142.4244  168.7942 N.ar    1  UNL1       -0.2089
     29 C         142.3971  141.9022  168.2379 C.ar    1  UNL1        0.1361
     30 H         139.0873  142.2648  170.9044 H       1  UNL1        0.1437
     31 H         139.9614  142.9903  172.1761 H       1  UNL1        0.1437
     32 C         139.4984  139.9932  168.6701 C.2     1  UNL1        0.0002
     33 C         139.8544  141.4411  168.5067 C.2     1  UNL1        0.0056
     34 C         140.5922  137.5127  163.1744 C.3     1  UNL1        0.1245
     35 C         139.1132  137.7578  163.2256 C.3     1  UNL1        0.0970
     36 N         138.5897  139.1075  163.6182 N.3     1  UNL1       -0.2687
     37 C         137.9597  139.9965  162.5873 C.3     1  UNL1        0.0897
     38 C         138.6962  139.5682  165.0417 C.3     1  UNL1        0.0897
@<TRIPOS>BOND
     1    32    33    2
     2    33    23    1
     3    23    24   ar
     4    24    25    1
     5    24    26   ar
     6    26    27   ar
     7    27    28   ar
     8    28    29   ar
     9    29    17    1
    10    17    18    1
    11    18    19    1
    12    19    20    1
    13    20     1    1
    14     1     2   ar
    15     2     3   ar
    16     3     6    1
    17     6     7   ar
    18     7     8   ar
    19     8     9   ar
    20     9    10    1
    21     9    11   ar
    22    11    13    1
    23    13    14    1
    24    13    15    1
    25    13    16    1
    26    11    12   ar
    27     3     4   ar
    28     4     5   ar
    29     5    34    1
    30    34    35    1
    31    35    36    1
    32    36    37    1
    33    36    38    1
    34    20    21    1
    35    21    22    1
    36    29    23   ar
    37    22    17    1
    38     5     1   ar
    39    12     6   ar
    40    25    30    1
    41    25    31    1
@<TRIPOS>MOLECULE
*****
 38 41 0 0 0
SMALL
GASTEIGER

@<TRIPOS>ATOM
      1 C         141.3867  139.8123  163.7182 C.ar    1  UNL1        0.1200
      2 N         141.6018  140.6254  164.9602 N.ar    1  UNL1       -0.2309
      3 C         140.7900  140.0118  166.0623 C.ar    1  UNL1        0.0997
      4 C         140.0731  138.8195  165.5014 C.ar    1  UNL1        0.0961
      5 N         140.4419  138.6963  164.0527 N.ar    1  UNL1       -0.3123
      6 C         140.7092  140.5041  167.4769 C.ar    1  UNL1        0.0193
      7 C         139.4948  140.2077  168.3060 C.ar    1  UNL1        0.0038
      8 C         139.4140  140.7000  169.7205 C.ar    1  UNL1        0.0296
      9 C         140.5476  141.4887  170.3062 C.ar    1  UNL1        0.1440
     10 F         140.4669  141.9810  171.7207 F       1  UNL1       -0.2042
     11 C         141.7620  141.7851  169.4771 C.ar    1  UNL1        0.0988
     12 C         141.8428  141.2928  168.0625 C.ar    1  UNL1        0.0077
     13 C         142.8956  142.5738  170.0626 C.3     1  UNL1        0.4207
     14 F         144.0292  143.3625  170.6481 F       1  UNL1       -0.1658
     15 F         142.0288  143.7976  170.0925 F       1  UNL1       -0.1658
     16 F         143.7625  141.3501  170.0327 F       1  UNL1       -0.1658
     17 N         143.2487  140.5856  159.6952 N.pl3   1  UNL1       -0.2931
     18 C         142.1039  141.4322  160.1669 C.3     1  UNL1        0.0926
     19 C         141.4832  141.1744  161.5079 C.3     1  UNL1        0.0290
     20 C         142.0074  140.0700  162.3772 C.3     1  UNL1        0.0603
     21 C         143.1522  139.2234  161.9055 C.3     1  UNL1        0.0290
     22 C         143.7729  139.4812  160.5644 C.3     1  UNL1        0.0926
     23 C         143.3971  140.0831  157.1505 C.ar    1  UNL1        0.0628
     24 C         144.0178  140.3409  155.8095 C.ar    1  UNL1        0.1298
     25 N         143.5454  139.5806  154.6057 N.pl3   1  UNL1       -0.3425
     26 N         145.1107  141.3590  155.6722 N.ar    1  UNL1       -0.2094
     27 C         145.5831  142.1193  156.8758 C.ar    1  UNL1        0.2012
     28 N         144.9624  141.8614  158.2168 N.ar    1  UNL1       -0.2089
     29 C         143.8694  140.8434  158.3541 C.ar    1  UNL1        0.1361
     30 H         142.8281  138.9124  154.6959 H       1  UNL1        0.1437
     31 H         143.9528  139.7498  153.7256 H       1  UNL1        0.1437
     32 C         142.6456  137.6302  157.5609 C.2     1  UNL1        0.0002
     33 C         142.3041  139.0650  157.2878 C.2     1  UNL1        0.0056
     34 C         139.9519  137.6420  163.1048 C.3     1  UNL1        0.1245
     35 C         138.6709  137.8471  162.3520 C.3     1  UNL1        0.0970
     36 N         138.5532  138.9692  161.3635 N.3     1  UNL1       -0.2687
     37 C         137.8357  140.2306  161.7428 C.3     1  UNL1        0.0897
     38 C         139.1530  138.8298  159.9957 C.3     1  UNL1        0.0897
@<TRIPOS>BOND
     1    32    33    2
     2    33    23    1
     3    23    24   ar
     4    24    25    1
     5    24    26   ar
     6    26    27   ar
     7    27    28   ar
     8    28    29   ar
     9    29    17    1
    10    17    18    1
    11    18    19    1
    12    19    20    1
    13    20     1    1
    14     1     2   ar
    15     2     3   ar
    16     3     6    1
    17     6     7   ar
    18     7     8   ar
    19     8     9   ar
    20     9    10    1
    21     9    11   ar
    22    11    13    1
    23    13    14    1
    24    13    15    1
    25    13    16    1
    26    11    12   ar
    27     3     4   ar
    28     4     5   ar
    29     5    34    1
    30    34    35    1
    31    35    36    1
    32    36    37    1
    33    36    38    1
    34    20    21    1
    35    21    22    1
    36    29    23   ar
    37    22    17    1
    38     5     1   ar
    39    12     6   ar
    40    25    30    1
    41    25    31    1
@<TRIPOS>MOLECULE
*****
 38 41 0 0 0
SMALL
GASTEIGER

@<TRIPOS>ATOM
      1 C         139.8862  140.7129  163.8878 C.ar    1  UNL1        0.1200
      2 N         140.0856  141.4239  165.1934 N.ar    1  UNL1       -0.2309
      3 C         140.1498  140.3906  166.2788 C.ar    1  UNL1        0.0997
      4 C         139.9900  139.0409  165.6440 C.ar    1  UNL1        0.0961
      5 N         139.8271  139.2402  164.1663 N.ar    1  UNL1       -0.3123
      6 C         140.3402  140.6597  167.7422 C.ar    1  UNL1        0.0193
      7 C         139.3516  140.1284  168.7373 C.ar    1  UNL1        0.0038
      8 C         139.5420  140.3974  170.2006 C.ar    1  UNL1        0.0296
      9 C         140.7212  141.1978  170.6688 C.ar    1  UNL1        0.1440
     10 F         140.9117  141.4669  172.1321 F       1  UNL1       -0.2042
     11 C         141.7098  141.7291  169.6737 C.ar    1  UNL1        0.0988
     12 C         141.5193  141.4600  168.2103 C.ar    1  UNL1        0.0077
     13 C         142.8889  142.5294  170.1418 C.3     1  UNL1        0.4207
     14 F         144.0680  143.3297  170.6100 F       1  UNL1       -0.1658
     15 F         143.7493  141.3027  170.0720 F       1  UNL1       -0.1658
     16 F         142.0285  143.7561  170.2116 F       1  UNL1       -0.1658
     17 N         139.5281  142.6569  159.8452 N.pl3   1  UNL1       -0.2931
     18 C         138.3595  142.6613  160.7856 C.3     1  UNL1        0.0926
     19 C         138.4789  142.0133  162.1332 C.3     1  UNL1        0.0290
     20 C         139.7668  141.3609  162.5402 C.3     1  UNL1        0.0603
     21 C         140.9354  141.3565  161.5998 C.3     1  UNL1        0.0290
     22 C         140.8160  142.0045  160.2522 C.3     1  UNL1        0.0926
     23 C         140.0788  144.6212  158.2363 C.ar    1  UNL1        0.0628
     24 C         139.9594  145.2691  156.8888 C.ar    1  UNL1        0.1298
     25 N         140.6296  146.5854  156.6275 N.pl3   1  UNL1       -0.3425
     26 N         139.1698  144.6008  155.8026 N.ar    1  UNL1       -0.2094
     27 C         138.4996  143.2846  156.0638 C.ar    1  UNL1        0.2012
     28 N         138.6191  142.6366  157.4113 N.ar    1  UNL1       -0.2089
     29 C         139.4087  143.3049  158.4976 C.ar    1  UNL1        0.1361
     30 H         141.1478  147.0241  157.3404 H       1  UNL1        0.1437
     31 H         140.5512  147.0107  155.7430 H       1  UNL1        0.1437
     32 C         140.1709  145.8145  160.5422 C.2     1  UNL1        0.0002
     33 C         140.8684  145.2895  159.3225 C.2     1  UNL1        0.0056
     34 C         139.6383  138.1568  163.1461 C.3     1  UNL1        0.1245
     35 C         140.7974  137.2930  162.7460 C.3     1  UNL1        0.0970
     36 N         142.0472  137.9195  162.2022 N.3     1  UNL1       -0.2687
     37 C         142.2715  137.9814  160.7204 C.3     1  UNL1        0.0897
     38 C         143.0725  138.4840  163.1402 C.3     1  UNL1        0.0897
@<TRIPOS>BOND
     1    32    33    2
     2    33    23    1
     3    23    24   ar
     4    24    25    1
     5    24    26   ar
     6    26    27   ar
     7    27    28   ar
     8    28    29   ar
     9    29    17    1
    10    17    18    1
    11    18    19    1
    12    19    20    1
    13    20     1    1
    14     1     2   ar
    15     2     3   ar
    16     3     6    1
    17     6     7   ar
    18     7     8   ar
    19     8     9   ar
    20     9    10    1
    21     9    11   ar
    22    11    13    1
    23    13    14    1
    24    13    15    1
    25    13    16    1
    26    11    12   ar
    27     3     4   ar
    28     4     5   ar
    29     5    34    1
    30    34    35    1
    31    35    36    1
    32    36    37    1
    33    36    38    1
    34    20    21    1
    35    21    22    1
    36    29    23   ar
    37    22    17    1
    38     5     1   ar
    39    12     6   ar
    40    25    30    1
    41    25    31    1
