@<TRIPOS>MOLECULE
*****
 28 30 0 0 0
SMALL
GASTEIGER

@<TRIPOS>ATOM
      1 C         140.4261  140.0206  166.0927 C.ar    1  UNL1        0.0084
      2 C         141.6990  139.7334  165.3529 C.ar    1  UNL1        0.0212
      3 C         142.9562  139.4306  166.1130 C.ar    1  UNL1        0.1523
      4 N         142.9406  139.4151  167.6128 N.ar    1  UNL1       -0.2414
      5 C         141.6677  139.7022  168.3526 C.ar    1  UNL1        0.0848
      6 C         141.6521  139.6867  169.8524 C.ar    1  UNL1        0.0890
      7 C         140.3792  139.9738  170.5922 C.ar    1  UNL1        0.0054
      8 C         139.1220  140.2766  169.8321 C.ar    1  UNL1        0.0000
      9 C         139.1376  140.2922  168.3323 C.ar    1  UNL1        0.0012
     10 C         140.4105  140.0050  167.5926 C.ar    1  UNL1        0.0160
     11 C         144.2292  139.1435  165.3732 C.3     1  UNL1        0.4348
     12 F         145.5020  138.8562  164.6334 F       1  UNL1       -0.1644
     13 F         143.9434  140.2820  164.4394 F       1  UNL1       -0.1644
     14 F         144.5149  138.0049  166.3069 F       1  UNL1       -0.1644
     15 C         142.9093  139.3839  170.6125 C.3     1  UNL1        0.4200
     16 F         144.1665  139.0811  171.3725 F       1  UNL1       -0.1658
     17 F         142.6664  137.9151  170.4292 F       1  UNL1       -0.1658
     18 F         143.1522  140.8527  170.7958 F       1  UNL1       -0.1658
     19 O         138.1778  139.2316  165.0569 O.3     1  UNL1       -0.3787
     20 C         139.1689  140.3234  165.3326 C.3     1  UNL1        0.1470
     21 H         138.5005  138.3989  165.4355 H       1  UNL1        0.2108
     22 C         138.9027  141.7178  164.8483 C.3     1  UNL1        0.0855
     23 C         139.5579  142.8849  165.5255 C.3     1  UNL1        0.0186
     24 C         139.2917  144.2794  165.0411 C.3     1  UNL1        0.0029
     25 C         138.3702  144.5067  163.8795 C.3     1  UNL1        0.0171
     26 C         137.7150  143.3397  163.2024 C.3     1  UNL1        0.0686
     27 N         137.9812  141.9452  163.6867 N.3     1  UNL1       -0.2963
     28 H         138.3691  141.4284  162.8975 H       1  UNL1        0.1233
@<TRIPOS>BOND
     1    19    20    1
     2    20     1    1
     3     1     2   ar
     4     2     3   ar
     5     3    11    1
     6    11    12    1
     7    11    13    1
     8    11    14    1
     9     3     4   ar
    10     4     5   ar
    11     5     6   ar
    12     6    15    1
    13    15    16    1
    14    15    17    1
    15    15    18    1
    16     6     7   ar
    17     7     8   ar
    18     8     9   ar
    19     9    10   ar
    20    20    22    1
    21    22    23    1
    22    23    24    1
    23    24    25    1
    24    25    26    1
    25    26    27    1
    26    10     1   ar
    27    27    22    1
    28    10     5   ar
    29    19    21    1
    30    27    28    1
@<TRIPOS>MOLECULE
*****
 28 30 0 0 0
SMALL
GASTEIGER

@<TRIPOS>ATOM
      1 C         140.3413  139.2361  166.0148 C.ar    1  UNL1        0.0084
      2 C         141.5727  139.0762  165.1735 C.ar    1  UNL1        0.0212
      3 C         142.8953  139.5727  165.6777 C.ar    1  UNL1        0.1523
      4 N         142.9864  140.2293  167.0232 N.ar    1  UNL1       -0.2414
      5 C         141.7549  140.3893  167.8647 C.ar    1  UNL1        0.0848
      6 C         141.8461  141.0459  169.2102 C.ar    1  UNL1        0.0890
      7 C         140.6147  141.2058  170.0516 C.ar    1  UNL1        0.0054
      8 C         139.2921  140.7092  169.5474 C.ar    1  UNL1        0.0000
      9 C         139.2009  140.0527  168.2019 C.ar    1  UNL1        0.0012
     10 C         140.4324  139.8927  167.3605 C.ar    1  UNL1        0.0160
     11 C         144.1268  139.4127  164.8362 C.3     1  UNL1        0.4348
     12 F         145.3581  139.2528  163.9948 F       1  UNL1       -0.1644
     13 F         144.6628  138.4073  165.8118 F       1  UNL1       -0.1644
     14 F         143.5907  140.4182  163.8607 F       1  UNL1       -0.1644
     15 C         143.1687  141.5424  169.7144 C.3     1  UNL1        0.4200
     16 F         144.4912  142.0390  170.2186 F       1  UNL1       -0.1658
     17 F         143.3834  140.2425  170.4314 F       1  UNL1       -0.1658
     18 F         142.9539  142.8424  168.9975 F       1  UNL1       -0.1658
     19 O         138.1973  137.8078  166.3516 O.3     1  UNL1       -0.3787
     20 C         139.0187  138.7396  165.5106 C.3     1  UNL1        0.1470
     21 H         138.6623  137.6285  167.1839 H       1  UNL1        0.2108
     22 C         138.5175  139.1747  164.1655 C.3     1  UNL1        0.0855
     23 C         138.0382  140.5816  163.9629 C.3     1  UNL1        0.0186
     24 C         137.5370  141.0167  162.6177 C.3     1  UNL1        0.0029
     25 C         137.5151  140.0450  161.4752 C.3     1  UNL1        0.0171
     26 C         137.9944  138.6382  161.6779 C.3     1  UNL1        0.0686
     27 N         138.4956  138.2030  163.0230 N.3     1  UNL1       -0.2963
     28 H         139.4549  137.8828  162.8903 H       1  UNL1        0.1233
@<TRIPOS>BOND
     1    19    20    1
     2    20     1    1
     3     1     2   ar
     4     2     3   ar
     5     3    11    1
     6    11    12    1
     7    11    13    1
     8    11    14    1
     9     3     4   ar
    10     4     5   ar
    11     5     6   ar
    12     6    15    1
    13    15    16    1
    14    15    17    1
    15    15    18    1
    16     6     7   ar
    17     7     8   ar
    18     8     9   ar
    19     9    10   ar
    20    20    22    1
    21    22    23    1
    22    23    24    1
    23    24    25    1
    24    25    26    1
    25    26    27    1
    26    10     1   ar
    27    27    22    1
    28    10     5   ar
    29    19    21    1
    30    27    28    1
@<TRIPOS>MOLECULE
*****
 28 30 0 0 0
SMALL
GASTEIGER

@<TRIPOS>ATOM
      1 C         138.8687  141.6642  163.8948 C.ar    1  UNL1        0.0084
      2 C         139.6495  142.8886  163.5192 C.ar    1  UNL1        0.0212
      3 C         140.5977  143.5050  164.5045 C.ar    1  UNL1        0.1523
      4 N         140.7651  142.8971  165.8655 N.ar    1  UNL1       -0.2414
      5 C         139.9843  141.6726  166.2412 C.ar    1  UNL1        0.0848
      6 C         140.1517  141.0646  167.6021 C.ar    1  UNL1        0.0890
      7 C         139.3708  139.8402  167.9778 C.ar    1  UNL1        0.0054
      8 C         138.4226  139.2238  166.9924 C.ar    1  UNL1        0.0000
      9 C         138.2552  139.8318  165.6315 C.ar    1  UNL1        0.0012
     10 C         139.0360  141.0562  165.2558 C.ar    1  UNL1        0.0160
     11 C         141.3785  144.7295  164.1288 C.3     1  UNL1        0.4348
     12 F         142.1593  145.9539  163.7531 F       1  UNL1       -0.1644
     13 F         142.6305  144.0926  164.6549 F       1  UNL1       -0.1644
     14 F         140.1265  145.3664  163.6027 F       1  UNL1       -0.1644
     15 C         141.0999  141.6811  168.5875 C.3     1  UNL1        0.4200
     16 F         142.0481  142.2975  169.5728 F       1  UNL1       -0.1658
     17 F         142.1826  140.7502  168.1279 F       1  UNL1       -0.1658
     18 F         140.0172  142.6119  169.0471 F       1  UNL1       -0.1658
     19 O         136.4436  141.2700  163.0499 O.3     1  UNL1       -0.3787
     20 C         137.9204  141.0478  162.9094 C.3     1  UNL1        0.1470
     21 H         136.2730  141.8301  163.8233 H       1  UNL1        0.2108
     22 C         138.4490  140.2092  161.7837 C.3     1  UNL1        0.0855
     23 C         139.2093  138.9503  162.0791 C.3     1  UNL1        0.0186
     24 C         139.7378  138.1117  160.9533 C.3     1  UNL1        0.0029
     25 C         139.5061  138.5319  159.5321 C.3     1  UNL1        0.0171
     26 C         138.7458  139.7908  159.2368 C.3     1  UNL1        0.0686
     27 N         138.2172  140.6294  160.3625 N.3     1  UNL1       -0.2963
     28 H         137.2071  140.6911  160.2346 H       1  UNL1        0.1233
@<TRIPOS>BOND
     1    19    20    1
     2    20     1    1
     3     1     2   ar
     4     2     3   ar
     5     3    11    1
     6    11    12    1
     7    11    13    1
     8    11    14    1
     9     3     4   ar
    10     4     5   ar
    11     5     6   ar
    12     6    15    1
    13    15    16    1
    14    15    17    1
    15    15    18    1
    16     6     7   ar
    17     7     8   ar
    18     8     9   ar
    19     9    10   ar
    20    20    22    1
    21    22    23    1
    22    23    24    1
    23    24    25    1
    24    25    26    1
    25    26    27    1
    26    10     1   ar
    27    27    22    1
    28    10     5   ar
    29    19    21    1
    30    27    28    1
@<TRIPOS>MOLECULE
*****
 28 30 0 0 0
SMALL
GASTEIGER

@<TRIPOS>ATOM
      1 C         139.3731  139.5269  163.6576 C.ar    1  UNL1        0.0084
      2 C         139.7644  139.2019  165.0687 C.ar    1  UNL1        0.0212
      3 C         139.7343  140.2709  166.1205 C.ar    1  UNL1        0.1523
      4 N         139.3128  141.6649  165.7613 N.ar    1  UNL1       -0.2414
      5 C         138.9215  141.9900  164.3501 C.ar    1  UNL1        0.0848
      6 C         138.5000  143.3840  163.9909 C.ar    1  UNL1        0.0890
      7 C         138.1088  143.7090  162.5798 C.ar    1  UNL1        0.0054
      8 C         138.1389  142.6400  161.5279 C.ar    1  UNL1        0.0000
      9 C         138.5604  141.2460  161.8872 C.ar    1  UNL1        0.0012
     10 C         138.9517  140.9210  163.2983 C.ar    1  UNL1        0.0160
     11 C         140.1256  139.9458  167.5317 C.3     1  UNL1        0.4348
     12 F         140.5168  139.6208  168.9427 F       1  UNL1       -0.1644
     13 F         141.5402  140.3436  167.2311 F       1  UNL1       -0.1644
     14 F         138.7109  139.5480  167.8323 F       1  UNL1       -0.1644
     15 C         138.4699  144.4529  165.0427 C.3     1  UNL1        0.4200
     16 F         138.4397  145.5219  166.0945 F       1  UNL1       -0.1658
     17 F         136.9897  144.2627  165.1936 F       1  UNL1       -0.1658
     18 F         139.9501  144.6432  164.8918 F       1  UNL1       -0.1658
     19 O         138.2425  137.5195  162.4566 O.3     1  UNL1       -0.3787
     20 C         139.4033  138.4579  162.6057 C.3     1  UNL1        0.1470
     21 H         137.5626  137.7395  163.1125 H       1  UNL1        0.2108
     22 C         140.5941  138.3273  161.7031 C.3     1  UNL1        0.0855
     23 C         141.9348  137.9752  162.2763 C.3     1  UNL1        0.0186
     24 C         143.1256  137.8446  161.3736 C.3     1  UNL1        0.0029
     25 C         142.9758  138.0661  159.8976 C.3     1  UNL1        0.0171
     26 C         141.6351  138.4182  159.3244 C.3     1  UNL1        0.0686
     27 N         140.4443  138.5488  160.2270 N.3     1  UNL1       -0.2963
     28 H         139.7501  137.8780  159.8976 H       1  UNL1        0.1233
@<TRIPOS>BOND
     1    19    20    1
     2    20     1    1
     3     1     2   ar
     4     2     3   ar
     5     3    11    1
     6    11    12    1
     7    11    13    1
     8    11    14    1
     9     3     4   ar
    10     4     5   ar
    11     5     6   ar
    12     6    15    1
    13    15    16    1
    14    15    17    1
    15    15    18    1
    16     6     7   ar
    17     7     8   ar
    18     8     9   ar
    19     9    10   ar
    20    20    22    1
    21    22    23    1
    22    23    24    1
    23    24    25    1
    24    25    26    1
    25    26    27    1
    26    10     1   ar
    27    27    22    1
    28    10     5   ar
    29    19    21    1
    30    27    28    1
@<TRIPOS>MOLECULE
*****
 28 30 0 0 0
SMALL
GASTEIGER

@<TRIPOS>ATOM
      1 C         142.7727  140.1821  165.6419 C.ar    1  UNL1        0.0084
      2 C         142.8913  140.4095  167.1197 C.ar    1  UNL1        0.0212
      3 C         141.7556  140.0430  168.0285 C.ar    1  UNL1        0.1523
      4 N         140.5013  139.4492  167.4594 N.ar    1  UNL1       -0.2414
      5 C         140.3826  139.2217  165.9815 C.ar    1  UNL1        0.0848
      6 C         139.1282  138.6279  165.4124 C.ar    1  UNL1        0.0890
      7 C         139.0096  138.4005  163.9345 C.ar    1  UNL1        0.0054
      8 C         140.1453  138.7670  163.0257 C.ar    1  UNL1        0.0000
      9 C         141.3996  139.3608  163.5948 C.ar    1  UNL1        0.0012
     10 C         141.5183  139.5882  165.0727 C.ar    1  UNL1        0.0160
     11 C         141.8743  140.2704  169.5065 C.3     1  UNL1        0.4348
     12 F         141.9930  140.4978  170.9843 F       1  UNL1       -0.1644
     13 F         140.6325  139.4596  169.7310 F       1  UNL1       -0.1644
     14 F         143.1161  141.0813  169.2819 F       1  UNL1       -0.1644
     15 C         137.9925  138.2614  166.3212 C.3     1  UNL1        0.4200
     16 F         136.8568  137.8950  167.2299 F       1  UNL1       -0.1658
     17 F         137.6425  139.7125  166.4689 F       1  UNL1       -0.1658
     18 F         138.3425  136.8103  166.1734 F       1  UNL1       -0.1658
     19 O         144.9853  139.5472  164.4372 O.3     1  UNL1       -0.3787
     20 C         143.9084  140.5486  164.7331 C.3     1  UNL1        0.1470
     21 H         144.7970  138.7209  164.9091 H       1  UNL1        0.2108
     22 C         143.9671  141.9163  164.1202 C.3     1  UNL1        0.0855
     23 C         143.7703  143.1314  164.9773 C.3     1  UNL1        0.0186
     24 C         143.8290  144.4992  164.3643 C.3     1  UNL1        0.0029
     25 C         144.0847  144.6519  162.8942 C.3     1  UNL1        0.0171
     26 C         144.2816  143.4368  162.0370 C.3     1  UNL1        0.0686
     27 N         144.2228  142.0690  162.6500 N.3     1  UNL1       -0.2963
     28 H         145.1196  141.6220  162.4591 H       1  UNL1        0.1233
@<TRIPOS>BOND
     1    19    20    1
     2    20     1    1
     3     1     2   ar
     4     2     3   ar
     5     3    11    1
     6    11    12    1
     7    11    13    1
     8    11    14    1
     9     3     4   ar
    10     4     5   ar
    11     5     6   ar
    12     6    15    1
    13    15    16    1
    14    15    17    1
    15    15    18    1
    16     6     7   ar
    17     7     8   ar
    18     8     9   ar
    19     9    10   ar
    20    20    22    1
    21    22    23    1
    22    23    24    1
    23    24    25    1
    24    25    26    1
    25    26    27    1
    26    10     1   ar
    27    27    22    1
    28    10     5   ar
    29    19    21    1
    30    27    28    1
@<TRIPOS>MOLECULE
*****
 28 30 0 0 0
SMALL
GASTEIGER

@<TRIPOS>ATOM
      1 C         141.2119  141.7355  165.8683 C.ar    1  UNL1        0.0084
      2 C         140.2176  142.7109  165.3116 C.ar    1  UNL1        0.0212
      3 C         139.2908  142.2905  164.2096 C.ar    1  UNL1        0.1523
      4 N         139.3583  140.8948  163.6643 N.ar    1  UNL1       -0.2414
      5 C         140.3527  139.9194  164.2210 C.ar    1  UNL1        0.0848
      6 C         140.4202  138.5237  163.6757 C.ar    1  UNL1        0.0890
      7 C         141.4145  137.5483  164.2324 C.ar    1  UNL1        0.0054
      8 C         142.3413  137.9686  165.3343 C.ar    1  UNL1        0.0000
      9 C         142.2738  139.3643  165.8797 C.ar    1  UNL1        0.0012
     10 C         141.2795  140.3397  165.3230 C.ar    1  UNL1        0.0160
     11 C         138.2965  143.2660  163.6529 C.3     1  UNL1        0.4348
     12 F         137.3021  144.2414  163.0963 F       1  UNL1       -0.1644
     13 F         139.2740  143.6517  162.5826 F       1  UNL1       -0.1644
     14 F         137.3189  142.8803  164.7232 F       1  UNL1       -0.1644
     15 C         139.4934  138.1033  162.5737 C.3     1  UNL1        0.4200
     16 F         138.5666  137.6830  161.4717 F       1  UNL1       -0.1658
     17 F         140.4357  138.6823  161.5604 F       1  UNL1       -0.1658
     18 F         138.5511  137.5243  163.5870 F       1  UNL1       -0.1658
     19 O         143.5196  142.6426  166.6441 O.3     1  UNL1       -0.3787
     20 C         142.1387  142.1558  166.9703 C.3     1  UNL1        0.1470
     21 H         143.6508  142.6230  165.6832 H       1  UNL1        0.2108
     22 C         141.6847  142.0894  168.3983 C.3     1  UNL1        0.0855
     23 C         140.5940  142.9986  168.8817 C.3     1  UNL1        0.0186
     24 C         140.1400  142.9321  170.3098 C.3     1  UNL1        0.0029
     25 C         140.7767  141.9564  171.2546 C.3     1  UNL1        0.0171
     26 C         141.8674  141.0471  170.7712 C.3     1  UNL1        0.0686
     27 N         142.3214  141.1136  169.3431 N.3     1  UNL1       -0.2963
     28 H         142.1809  140.1847  168.9460 H       1  UNL1        0.1233
@<TRIPOS>BOND
     1    19    20    1
     2    20     1    1
     3     1     2   ar
     4     2     3   ar
     5     3    11    1
     6    11    12    1
     7    11    13    1
     8    11    14    1
     9     3     4   ar
    10     4     5   ar
    11     5     6   ar
    12     6    15    1
    13    15    16    1
    14    15    17    1
    15    15    18    1
    16     6     7   ar
    17     7     8   ar
    18     8     9   ar
    19     9    10   ar
    20    20    22    1
    21    22    23    1
    22    23    24    1
    23    24    25    1
    24    25    26    1
    25    26    27    1
    26    10     1   ar
    27    27    22    1
    28    10     5   ar
    29    19    21    1
    30    27    28    1
@<TRIPOS>MOLECULE
*****
 28 30 0 0 0
SMALL
GASTEIGER

@<TRIPOS>ATOM
      1 C         141.5998  139.0982  164.1747 C.ar    1  UNL1        0.0084
      2 C         142.9424  139.6132  163.7479 C.ar    1  UNL1        0.0212
      3 C         143.6903  140.5739  164.6240 C.ar    1  UNL1        0.1523
      4 N         143.0957  141.0196  165.9269 N.ar    1  UNL1       -0.2414
      5 C         141.7530  140.5046  166.3538 C.ar    1  UNL1        0.0848
      6 C         141.1584  140.9503  167.6567 C.ar    1  UNL1        0.0890
      7 C         139.8158  140.4353  168.0835 C.ar    1  UNL1        0.0054
      8 C         139.0679  139.4746  167.2074 C.ar    1  UNL1        0.0000
      9 C         139.6626  139.0288  165.9045 C.ar    1  UNL1        0.0012
     10 C         141.0051  139.5439  165.4777 C.ar    1  UNL1        0.0160
     11 C         145.0330  141.0889  164.1971 C.3     1  UNL1        0.4348
     12 F         146.3755  141.6039  163.7702 F       1  UNL1       -0.1644
     13 F         144.7779  142.3681  164.9379 F       1  UNL1       -0.1644
     14 F         145.2881  139.8098  163.4564 F       1  UNL1       -0.1644
     15 C         141.9063  141.9111  168.5329 C.3     1  UNL1        0.4200
     16 F         142.6542  142.8718  169.4090 F       1  UNL1       -0.1658
     17 F         142.7879  140.7934  169.0059 F       1  UNL1       -0.1658
     18 F         141.0248  143.0287  168.0598 F       1  UNL1       -0.1658
     19 O         141.2382  136.6881  163.2740 O.3     1  UNL1       -0.3787
     20 C         140.8519  138.1374  163.2985 C.3     1  UNL1        0.1470
     21 H         141.9839  136.5420  163.8769 H       1  UNL1        0.2108
     22 C         139.7178  138.6259  162.4470 C.3     1  UNL1        0.0855
     23 C         139.7813  139.9884  161.8229 C.3     1  UNL1        0.0186
     24 C         138.6471  140.4768  160.9713 C.3     1  UNL1        0.0029
     25 C         137.4495  139.6028  160.7439 C.3     1  UNL1        0.0171
     26 C         137.3860  138.2403  161.3680 C.3     1  UNL1        0.0686
     27 N         138.5201  137.7518  162.2195 N.3     1  UNL1       -0.2963
     28 H         138.8608  136.8912  161.7909 H       1  UNL1        0.1233
@<TRIPOS>BOND
     1    19    20    1
     2    20     1    1
     3     1     2   ar
     4     2     3   ar
     5     3    11    1
     6    11    12    1
     7    11    13    1
     8    11    14    1
     9     3     4   ar
    10     4     5   ar
    11     5     6   ar
    12     6    15    1
    13    15    16    1
    14    15    17    1
    15    15    18    1
    16     6     7   ar
    17     7     8   ar
    18     8     9   ar
    19     9    10   ar
    20    20    22    1
    21    22    23    1
    22    23    24    1
    23    24    25    1
    24    25    26    1
    25    26    27    1
    26    10     1   ar
    27    27    22    1
    28    10     5   ar
    29    19    21    1
    30    27    28    1
@<TRIPOS>MOLECULE
*****
 28 30 0 0 0
SMALL
GASTEIGER

@<TRIPOS>ATOM
      1 C         138.7140  141.2474  164.5183 C.ar    1  UNL1        0.0084
      2 C         137.9869  140.0494  165.0532 C.ar    1  UNL1        0.0212
      3 C         138.5928  139.2361  166.1583 C.ar    1  UNL1        0.1523
      4 N         139.9258  139.6207  166.7286 N.ar    1  UNL1       -0.2414
      5 C         140.6529  140.8188  166.1937 C.ar    1  UNL1        0.0848
      6 C         141.9859  141.2034  166.7639 C.ar    1  UNL1        0.0890
      7 C         142.7129  142.4014  166.2290 C.ar    1  UNL1        0.0054
      8 C         142.1070  143.2148  165.1239 C.ar    1  UNL1        0.0000
      9 C         140.7741  142.8301  164.5537 C.ar    1  UNL1        0.0012
     10 C         140.0470  141.6321  165.0885 C.ar    1  UNL1        0.0160
     11 C         137.8657  138.0380  166.6932 C.3     1  UNL1        0.4348
     12 F         137.1386  136.8400  167.2280 F       1  UNL1       -0.1644
     13 F         137.3421  138.8636  167.8308 F       1  UNL1       -0.1644
     14 F         138.3893  137.2124  165.5556 F       1  UNL1       -0.1644
     15 C         142.5918  140.3900  167.8690 C.3     1  UNL1        0.4200
     16 F         143.1977  139.5767  168.9742 F       1  UNL1       -0.1658
     17 F         143.1894  139.4589  166.8561 F       1  UNL1       -0.1658
     18 F         141.9942  141.3211  168.8820 F       1  UNL1       -0.1658
     19 O         137.5005  143.3991  163.7133 O.3     1  UNL1       -0.3787
     20 C         138.1081  142.0608  163.4132 C.3     1  UNL1        0.1470
     21 H         137.5822  143.5860  164.6616 H       1  UNL1        0.2108
     22 C         138.1097  141.5360  162.0080 C.3     1  UNL1        0.0855
     23 C         138.9787  142.1791  160.9682 C.3     1  UNL1        0.0186
     24 C         138.9803  141.6542  159.5630 C.3     1  UNL1        0.0029
     25 C         138.1130  140.4863  159.1976 C.3     1  UNL1        0.0171
     26 C         137.2440  139.8431  160.2375 C.3     1  UNL1        0.0686
     27 N         137.2423  140.3680  161.6426 N.3     1  UNL1       -0.2963
     28 H         137.5207  139.5943  162.2462 H       1  UNL1        0.1233
@<TRIPOS>BOND
     1    19    20    1
     2    20     1    1
     3     1     2   ar
     4     2     3   ar
     5     3    11    1
     6    11    12    1
     7    11    13    1
     8    11    14    1
     9     3     4   ar
    10     4     5   ar
    11     5     6   ar
    12     6    15    1
    13    15    16    1
    14    15    17    1
    15    15    18    1
    16     6     7   ar
    17     7     8   ar
    18     8     9   ar
    19     9    10   ar
    20    20    22    1
    21    22    23    1
    22    23    24    1
    23    24    25    1
    24    25    26    1
    25    26    27    1
    26    10     1   ar
    27    27    22    1
    28    10     5   ar
    29    19    21    1
    30    27    28    1
@<TRIPOS>MOLECULE
*****
 28 30 0 0 0
SMALL
GASTEIGER

@<TRIPOS>ATOM
      1 C         140.9234  141.6628  165.4367 C.ar    1  UNL1        0.0084
      2 C         142.4019  141.5648  165.2038 C.ar    1  UNL1        0.0212
      3 C         143.0384  142.3388  164.0877 C.ar    1  UNL1        0.1523
      4 N         142.1963  143.2110  163.2044 N.ar    1  UNL1       -0.2414
      5 C         140.7176  143.3091  163.4373 C.ar    1  UNL1        0.0848
      6 C         139.8755  144.1812  162.5540 C.ar    1  UNL1        0.0890
      7 C         138.3970  144.2793  162.7869 C.ar    1  UNL1        0.0054
      8 C         137.7606  143.5052  163.9030 C.ar    1  UNL1        0.0000
      9 C         138.6027  142.6331  164.7863 C.ar    1  UNL1        0.0012
     10 C         140.0812  142.5350  164.5534 C.ar    1  UNL1        0.0160
     11 C         144.5170  142.2407  163.8548 C.3     1  UNL1        0.4348
     12 F         145.9955  142.1427  163.6219 F       1  UNL1       -0.1644
     13 F         144.5622  140.9833  164.6714 F       1  UNL1       -0.1644
     14 F         144.4718  143.4982  163.0382 F       1  UNL1       -0.1644
     15 C         140.5120  144.9553  161.4379 C.3     1  UNL1        0.4200
     16 F         141.1484  145.7294  160.3217 F       1  UNL1       -0.1658
     17 F         140.3603  143.7709  160.5300 F       1  UNL1       -0.1658
     18 F         140.6636  146.1397  162.3458 F       1  UNL1       -0.1658
     19 O         139.6317  139.5690  166.2718 O.3     1  UNL1       -0.3787
     20 C         140.2870  140.8887  166.5528 C.3     1  UNL1        0.1470
     21 H         139.7078  139.3650  165.3265 H       1  UNL1        0.2108
     22 C         140.3059  141.4343  167.9499 C.3     1  UNL1        0.0855
     23 C         140.4329  142.9117  168.1765 C.3     1  UNL1        0.0186
     24 C         140.4518  143.4572  169.5737 C.3     1  UNL1        0.0029
     25 C         140.3436  142.5255  170.7442 C.3     1  UNL1        0.0171
     26 C         140.2165  141.0482  170.5176 C.3     1  UNL1        0.0686
     27 N         140.1977  140.5026  169.1205 N.3     1  UNL1       -0.2963
     28 H         139.3184  139.9966  169.0138 H       1  UNL1        0.1233
@<TRIPOS>BOND
     1    19    20    1
     2    20     1    1
     3     1     2   ar
     4     2     3   ar
     5     3    11    1
     6    11    12    1
     7    11    13    1
     8    11    14    1
     9     3     4   ar
    10     4     5   ar
    11     5     6   ar
    12     6    15    1
    13    15    16    1
    14    15    17    1
    15    15    18    1
    16     6     7   ar
    17     7     8   ar
    18     8     9   ar
    19     9    10   ar
    20    20    22    1
    21    22    23    1
    22    23    24    1
    23    24    25    1
    24    25    26    1
    25    26    27    1
    26    10     1   ar
    27    27    22    1
    28    10     5   ar
    29    19    21    1
    30    27    28    1
