@<TRIPOS>MOLECULE
*****
 31 33 0 0 0
SMALL
GASTEIGER

@<TRIPOS>ATOM
      1 C         142.2898  143.1388  161.4978 C.3     1  UNL1        0.1219
      2 C         142.4039  142.6831  162.9223 C.ar    1  UNL1       -0.0121
      3 C         141.6275  141.4887  163.3922 C.ar    1  UNL1       -0.0038
      4 C         141.7417  141.0331  164.8167 C.ar    1  UNL1       -0.0003
      5 C         142.6322  141.7718  165.7714 C.ar    1  UNL1       -0.0000
      6 C         143.4085  142.9661  165.3015 C.ar    1  UNL1       -0.0003
      7 C         143.2944  143.4217  163.8770 C.ar    1  UNL1       -0.0038
      8 C         142.7463  141.3160  167.1960 C.ar    1  UNL1        0.0001
      9 C         143.2089  142.2726  168.2546 C.ar    1  UNL1        0.0023
     10 C         143.3231  141.8169  169.6792 C.ar    1  UNL1        0.0296
     11 C         142.9745  140.4046  170.0451 C.ar    1  UNL1        0.1401
     12 F         143.0886  139.9488  171.4696 F       1  UNL1       -0.2042
     13 C         142.5118  139.4480  168.9863 C.ar    1  UNL1        0.0296
     14 C         142.3977  139.9037  167.5618 C.ar    1  UNL1        0.0023
     15 C         143.7254  140.8402  158.5985 C.3     1  UNL1        0.1149
     16 N         142.7997  141.3956  159.6400 N.am    1  UNL1       -0.2757
     17 C         141.4583  140.7631  159.8653 C.3     1  UNL1        0.1149
     18 C         143.2154  142.5834  160.4562 C.2     1  UNL1        0.2312
     19 O         144.5568  143.2160  160.2310 O.2     1  UNL1       -0.2745
     20 C         141.2500  144.1498  161.1147 C.3     1  UNL1        0.1413
     21 N         141.6662  145.4859  160.5746 N.3     1  UNL1       -0.3144
     22 H         140.8368  146.0427  160.3686 H       1  UNL1        0.1193
     23 H         142.2077  145.3537  159.7204 H       1  UNL1        0.1193
     24 C         139.7941  143.8248  161.2718 C.2     1  UNL1        0.2406
     25 O         139.0228  143.2600  160.1160 O.2     1  UNL1       -0.2734
     26 N         139.1095  144.0647  162.5849 N.am    1  UNL1       -0.2756
     27 C         137.6668  143.7900  162.8900 C.3     1  UNL1        0.0964
     28 C         137.4131  144.1769  164.3170 C.3     1  UNL1        0.0585
     29 C         138.6991  144.6906  164.8936 C.3     1  UNL1        0.1824
     30 F         138.9011  145.1866  166.2946 F       1  UNL1       -0.2354
     31 C         139.7475  144.6213  163.8231 C.3     1  UNL1        0.1286
@<TRIPOS>BOND
     1    15    16    1
     2    16    17    1
     3    16    18   am
     4    18    19    2
     5     1    18    1
     6     1     2    1
     7     2     3   ar
     8     3     4   ar
     9     4     5   ar
    10     5     8    1
    11     8     9   ar
    12     9    10   ar
    13    10    11   ar
    14    11    12    1
    15    11    13   ar
    16    13    14   ar
    17     5     6   ar
    18     6     7   ar
    19     1    20    1
    20    20    21    1
    21    20    24    1
    22    24    25    2
    23    24    26   am
    24    26    27    1
    25    27    28    1
    26    28    29    1
    27    29    30    1
    28    29    31    1
    29     7     2   ar
    30    31    26    1
    31    14     8   ar
    32    21    22    1
    33    21    23    1
@<TRIPOS>MOLECULE
*****
 31 33 0 0 0
SMALL
GASTEIGER

@<TRIPOS>ATOM
      1 C         139.4962  143.4382  161.7088 C.3     1  UNL1        0.1219
      2 C         139.9236  143.2761  163.1375 C.ar    1  UNL1       -0.0121
      3 C         139.1003  143.8748  164.2392 C.ar    1  UNL1       -0.0038
      4 C         139.5276  143.7126  165.6678 C.ar    1  UNL1       -0.0003
      5 C         140.7782  142.9516  165.9948 C.ar    1  UNL1       -0.0000
      6 C         141.6015  142.3529  164.8931 C.ar    1  UNL1       -0.0003
      7 C         141.1742  142.5151  163.4645 C.ar    1  UNL1       -0.0038
      8 C         141.2056  142.7894  167.4235 C.ar    1  UNL1        0.0001
      9 C         142.5501  142.2060  167.7425 C.ar    1  UNL1        0.0023
     10 C         142.9774  142.0439  169.1713 C.ar    1  UNL1        0.0296
     11 C         142.0601  142.4651  170.2809 C.ar    1  UNL1        0.1401
     12 F         142.4874  142.3029  171.7095 F       1  UNL1       -0.2042
     13 C         140.7156  143.0485  169.9617 C.ar    1  UNL1        0.0296
     14 C         140.2883  143.2107  168.5331 C.ar    1  UNL1        0.0023
     15 C         141.6716  145.4747  159.0876 C.3     1  UNL1        0.1149
     16 N         141.1368  144.3369  159.9058 N.am    1  UNL1       -0.2757
     17 C         141.7079  142.9599  159.7391 C.3     1  UNL1        0.1149
     18 C         140.0310  144.5760  160.8906 C.2     1  UNL1        0.2312
     19 O         139.4599  145.9531  161.0573 O.2     1  UNL1       -0.2745
     20 C         138.5342  142.4627  161.0983 C.3     1  UNL1        0.1413
     21 N         138.0773  142.6466  159.6815 N.3     1  UNL1       -0.3144
     22 H         137.4306  141.8980  159.4328 H       1  UNL1        0.1193
     23 H         138.8840  142.6201  159.0579 H       1  UNL1        0.1193
     24 C         138.0291  141.3031  161.9047 C.2     1  UNL1        0.2406
     25 O         136.7563  141.4320  162.6878 O.2     1  UNL1       -0.2734
     26 N         138.7968  140.0146  161.9278 N.am    1  UNL1       -0.2756
     27 C         138.4174  138.7758  162.6839 C.3     1  UNL1        0.0964
     28 C         139.4648  137.7343  162.4224 C.3     1  UNL1        0.0585
     29 C         140.4913  138.3294  161.5047 C.3     1  UNL1        0.1824
     30 F         141.7156  137.6368  160.9840 F       1  UNL1       -0.2354
     31 C         140.0784  139.7387  161.1990 C.3     1  UNL1        0.1286
@<TRIPOS>BOND
     1    15    16    1
     2    16    17    1
     3    16    18   am
     4    18    19    2
     5     1    18    1
     6     1     2    1
     7     2     3   ar
     8     3     4   ar
     9     4     5   ar
    10     5     8    1
    11     8     9   ar
    12     9    10   ar
    13    10    11   ar
    14    11    12    1
    15    11    13   ar
    16    13    14   ar
    17     5     6   ar
    18     6     7   ar
    19     1    20    1
    20    20    21    1
    21    20    24    1
    22    24    25    2
    23    24    26   am
    24    26    27    1
    25    27    28    1
    26    28    29    1
    27    29    30    1
    28    29    31    1
    29     7     2   ar
    30    31    26    1
    31    14     8   ar
    32    21    22    1
    33    21    23    1
@<TRIPOS>MOLECULE
*****
 31 33 0 0 0
SMALL
GASTEIGER

@<TRIPOS>ATOM
      1 C         140.4028  143.5381  162.1514 C.3     1  UNL1        0.1219
      2 C         140.8417  143.0031  163.4823 C.ar    1  UNL1       -0.0121
      3 C         140.1146  143.4081  164.7302 C.ar    1  UNL1       -0.0038
      4 C         140.5535  142.8731  166.0610 C.ar    1  UNL1       -0.0003
      5 C         141.7196  141.9332  166.1440 C.ar    1  UNL1       -0.0000
      6 C         142.4467  141.5283  164.8961 C.ar    1  UNL1       -0.0003
      7 C         142.0078  142.0632  163.5653 C.ar    1  UNL1       -0.0038
      8 C         142.1585  141.3982  167.4749 C.ar    1  UNL1        0.0001
      9 C         142.9821  142.2528  168.3921 C.ar    1  UNL1        0.0023
     10 C         143.4210  141.7178  169.7230 C.ar    1  UNL1        0.0296
     11 C         143.0363  140.3283  170.1366 C.ar    1  UNL1        0.1401
     12 F         143.4751  139.7933  171.4674 F       1  UNL1       -0.2042
     13 C         142.2126  139.4737  169.2193 C.ar    1  UNL1        0.0296
     14 C         141.7737  140.0087  167.8885 C.ar    1  UNL1        0.0023
     15 C         138.3801  141.1488  159.7121 C.3     1  UNL1        0.1149
     16 N         139.5228  141.7931  160.4395 N.am    1  UNL1       -0.2757
     17 C         140.9284  141.3366  160.1824 C.3     1  UNL1        0.1149
     18 C         139.2600  142.8938  161.4240 C.2     1  UNL1        0.2312
     19 O         137.8545  143.3504  161.6812 O.2     1  UNL1       -0.2745
     20 C         141.1066  144.7173  161.5480 C.3     1  UNL1        0.1413
     21 N         142.4780  145.0961  162.0233 N.3     1  UNL1       -0.3144
     22 H         142.8022  145.9147  161.5084 H       1  UNL1        0.1193
     23 H         143.1193  144.3189  161.8652 H       1  UNL1        0.1193
     24 C         140.4391  145.5177  160.4692 C.2     1  UNL1        0.2406
     25 O         139.3296  146.4656  160.8162 O.2     1  UNL1       -0.2734
     26 N         140.8811  145.3701  159.0434 N.am    1  UNL1       -0.2756
     27 C         140.3108  146.1001  157.8636 C.3     1  UNL1        0.0964
     28 C         141.0482  145.6478  156.6380 C.3     1  UNL1        0.0585
     29 C         142.0742  144.6384  157.0606 C.3     1  UNL1        0.1824
     30 F         143.0348  143.9257  156.1555 F       1  UNL1       -0.2354
     31 C         141.9709  144.4668  158.5471 C.3     1  UNL1        0.1286
@<TRIPOS>BOND
     1    15    16    1
     2    16    17    1
     3    16    18   am
     4    18    19    2
     5     1    18    1
     6     1     2    1
     7     2     3   ar
     8     3     4   ar
     9     4     5   ar
    10     5     8    1
    11     8     9   ar
    12     9    10   ar
    13    10    11   ar
    14    11    12    1
    15    11    13   ar
    16    13    14   ar
    17     5     6   ar
    18     6     7   ar
    19     1    20    1
    20    20    21    1
    21    20    24    1
    22    24    25    2
    23    24    26   am
    24    26    27    1
    25    27    28    1
    26    28    29    1
    27    29    30    1
    28    29    31    1
    29     7     2   ar
    30    31    26    1
    31    14     8   ar
    32    21    22    1
    33    21    23    1
@<TRIPOS>MOLECULE
*****
 31 33 0 0 0
SMALL
GASTEIGER

@<TRIPOS>ATOM
      1 C         140.1999  143.5034  162.1735 C.3     1  UNL1        0.1219
      2 C         140.6705  142.9784  163.4976 C.ar    1  UNL1       -0.0121
      3 C         142.0542  142.4151  163.6320 C.ar    1  UNL1       -0.0038
      4 C         142.5248  141.8902  164.9560 C.ar    1  UNL1       -0.0003
      5 C         141.6118  141.9286  166.1455 C.ar    1  UNL1       -0.0000
      6 C         140.2281  142.4920  166.0110 C.ar    1  UNL1       -0.0003
      7 C         139.7575  143.0169  164.6871 C.ar    1  UNL1       -0.0038
      8 C         142.0824  141.4037  167.4695 C.ar    1  UNL1        0.0001
      9 C         141.7103  140.0163  167.9015 C.ar    1  UNL1        0.0023
     10 C         142.1810  139.4914  169.2255 C.ar    1  UNL1        0.0296
     11 C         143.0238  140.3539  170.1175 C.ar    1  UNL1        0.1401
     12 F         143.4945  139.8290  171.4415 F       1  UNL1       -0.2042
     13 C         143.3960  141.7413  169.6855 C.ar    1  UNL1        0.0296
     14 C         142.9253  142.2662  168.3615 C.ar    1  UNL1        0.0023
     15 C         138.2965  140.9420  159.8142 C.3     1  UNL1        0.1149
     16 N         139.4031  141.6404  160.5474 N.am    1  UNL1       -0.2757
     17 C         140.8199  141.1741  160.3875 C.3     1  UNL1        0.1149
     18 C         139.0932  142.8050  161.4404 C.2     1  UNL1        0.2312
     19 O         137.6764  143.2713  161.6003 O.2     1  UNL1       -0.2745
     20 C         140.8359  144.7266  161.5827 C.3     1  UNL1        0.1413
     21 N         140.5173  146.0818  162.1414 N.3     1  UNL1       -0.3144
     22 H         141.0338  146.7930  161.6239 H       1  UNL1        0.1193
     23 H         140.7850  146.1155  163.1251 H       1  UNL1        0.1193
     24 C         141.7904  144.5948  160.4332 C.2     1  UNL1        0.2406
     25 O         143.1285  143.9492  160.6397 O.2     1  UNL1       -0.2734
     26 N         141.4069  145.1086  159.0771 N.am    1  UNL1       -0.2756
     27 C         142.2524  145.0475  157.8396 C.3     1  UNL1        0.0964
     28 C         141.4786  145.6749  156.7181 C.3     1  UNL1        0.0585
     29 C         140.1549  146.1238  157.2626 C.3     1  UNL1        0.1824
     30 F         139.0666  146.8033  156.4855 F       1  UNL1       -0.2354
     31 C         140.1106  145.7738  158.7205 C.3     1  UNL1        0.1286
@<TRIPOS>BOND
     1    15    16    1
     2    16    17    1
     3    16    18   am
     4    18    19    2
     5     1    18    1
     6     1     2    1
     7     2     3   ar
     8     3     4   ar
     9     4     5   ar
    10     5     8    1
    11     8     9   ar
    12     9    10   ar
    13    10    11   ar
    14    11    12    1
    15    11    13   ar
    16    13    14   ar
    17     5     6   ar
    18     6     7   ar
    19     1    20    1
    20    20    21    1
    21    20    24    1
    22    24    25    2
    23    24    26   am
    24    26    27    1
    25    27    28    1
    26    28    29    1
    27    29    30    1
    28    29    31    1
    29     7     2   ar
    30    31    26    1
    31    14     8   ar
    32    21    22    1
    33    21    23    1
@<TRIPOS>MOLECULE
*****
 31 33 0 0 0
SMALL
GASTEIGER

@<TRIPOS>ATOM
      1 C         140.7669  142.8238  162.0941 C.3     1  UNL1        0.1219
      2 C         141.1666  142.3952  163.4749 C.ar    1  UNL1       -0.0121
      3 C         140.1616  142.4195  164.5881 C.ar    1  UNL1       -0.0038
      4 C         140.5613  141.9908  165.9688 C.ar    1  UNL1       -0.0003
      5 C         141.9660  141.5379  166.2363 C.ar    1  UNL1       -0.0000
      6 C         142.9710  141.5136  165.1231 C.ar    1  UNL1       -0.0003
      7 C         142.5713  141.9422  163.7424 C.ar    1  UNL1       -0.0038
      8 C         142.3657  141.1092  167.6172 C.ar    1  UNL1        0.0001
      9 C         142.0747  139.7134  168.0828 C.ar    1  UNL1        0.0023
     10 C         142.4744  139.2847  169.4636 C.ar    1  UNL1        0.0296
     11 C         143.1650  140.2520  170.3787 C.ar    1  UNL1        0.1401
     12 F         143.5647  139.8234  171.7595 F       1  UNL1       -0.2042
     13 C         143.4560  141.6479  169.9130 C.ar    1  UNL1        0.0296
     14 C         143.0563  142.0765  168.5323 C.ar    1  UNL1        0.0023
     15 C         139.6495  146.6003  161.6050 C.3     1  UNL1        0.1149
     16 N         139.6122  145.1484  161.9797 N.am    1  UNL1       -0.2757
     17 C         138.3830  144.5690  162.6150 C.3     1  UNL1        0.1149
     18 C         140.8041  144.2758  161.7193 C.2     1  UNL1        0.2312
     19 O         142.0334  144.8551  161.0840 O.2     1  UNL1       -0.2745
     20 C         140.3300  141.8006  161.0881 C.3     1  UNL1        0.1413
     21 N         141.1116  141.6124  159.8217 N.3     1  UNL1       -0.3144
     22 H         140.6761  140.8819  159.2587 H       1  UNL1        0.1193
     23 H         142.0681  141.3412  160.0496 H       1  UNL1        0.1193
     24 C         139.1116  140.9654  161.3485 C.2     1  UNL1        0.2406
     25 O         137.7553  141.4769  160.9629 O.2     1  UNL1       -0.2734
     26 N         139.2495  139.6186  161.9945 N.am    1  UNL1       -0.2756
     27 C         138.1278  138.6759  162.3157 C.3     1  UNL1        0.0964
     28 C         138.7183  137.4528  162.9525 C.3     1  UNL1        0.0585
     29 C         140.2049  137.6397  163.0248 C.3     1  UNL1        0.1824
     30 F         141.1901  136.6600  163.5899 F       1  UNL1       -0.2354
     31 C         140.5331  138.9782  162.4327 C.3     1  UNL1        0.1286
@<TRIPOS>BOND
     1    15    16    1
     2    16    17    1
     3    16    18   am
     4    18    19    2
     5     1    18    1
     6     1     2    1
     7     2     3   ar
     8     3     4   ar
     9     4     5   ar
    10     5     8    1
    11     8     9   ar
    12     9    10   ar
    13    10    11   ar
    14    11    12    1
    15    11    13   ar
    16    13    14   ar
    17     5     6   ar
    18     6     7   ar
    19     1    20    1
    20    20    21    1
    21    20    24    1
    22    24    25    2
    23    24    26   am
    24    26    27    1
    25    27    28    1
    26    28    29    1
    27    29    30    1
    28    29    31    1
    29     7     2   ar
    30    31    26    1
    31    14     8   ar
    32    21    22    1
    33    21    23    1
@<TRIPOS>MOLECULE
*****
 31 33 0 0 0
SMALL
GASTEIGER

@<TRIPOS>ATOM
      1 C         143.4493  141.0634  161.4155 C.3     1  UNL1        0.1219
      2 C         143.2794  141.0018  162.9046 C.ar    1  UNL1       -0.0121
      3 C         142.4593  142.0412  163.6095 C.ar    1  UNL1       -0.0038
      4 C         142.2894  141.9797  165.0985 C.ar    1  UNL1       -0.0003
      5 C         142.9396  140.8786  165.8827 C.ar    1  UNL1       -0.0000
      6 C         143.7598  139.8392  165.1778 C.ar    1  UNL1       -0.0003
      7 C         143.9297  139.9008  163.6888 C.ar    1  UNL1       -0.0038
      8 C         142.7697  140.8171  167.3718 C.ar    1  UNL1        0.0001
      9 C         142.9748  142.0496  168.2017 C.ar    1  UNL1        0.0023
     10 C         142.8049  141.9881  169.6908 C.ar    1  UNL1        0.0296
     11 C         142.4299  140.6939  170.3500 C.ar    1  UNL1        0.1401
     12 F         142.2599  140.6323  171.8390 F       1  UNL1       -0.2042
     13 C         142.2248  139.4613  169.5201 C.ar    1  UNL1        0.0296
     14 C         142.3947  139.5229  168.0310 C.ar    1  UNL1        0.0023
     15 C         141.2387  138.5294  159.3080 C.3     1  UNL1        0.1149
     16 N         141.6287  139.7032  160.1565 N.am    1  UNL1       -0.2757
     17 C         140.5880  140.6908  160.5944 C.3     1  UNL1        0.1149
     18 C         143.0593  139.8895  160.5670 C.2     1  UNL1        0.2312
     19 O         144.1000  138.9019  160.1290 O.2     1  UNL1       -0.2745
     20 C         144.0093  142.2987  160.7750 C.3     1  UNL1        0.1413
     21 N         145.2249  142.9591  161.3549 N.3     1  UNL1       -0.3144
     22 H         145.4650  143.7789  160.7975 H       1  UNL1        0.1193
     23 H         146.0051  142.3022  161.3470 H       1  UNL1        0.1193
     24 C         143.3536  142.8737  159.5545 C.2     1  UNL1        0.2406
     25 O         143.7869  142.4272  158.1896 O.2     1  UNL1       -0.2734
     26 N         142.2648  143.8953  159.6990 N.am    1  UNL1       -0.2756
     27 C         141.5209  144.5557  158.5762 C.3     1  UNL1        0.0964
     28 C         140.5250  145.5044  159.1748 C.3     1  UNL1        0.0585
     29 C         140.6534  145.4302  160.6675 C.3     1  UNL1        0.1824
     30 F         139.8480  146.2130  161.6617 F       1  UNL1       -0.2354
     31 C         141.7286  144.4357  160.9914 C.3     1  UNL1        0.1286
@<TRIPOS>BOND
     1    15    16    1
     2    16    17    1
     3    16    18   am
     4    18    19    2
     5     1    18    1
     6     1     2    1
     7     2     3   ar
     8     3     4   ar
     9     4     5   ar
    10     5     8    1
    11     8     9   ar
    12     9    10   ar
    13    10    11   ar
    14    11    12    1
    15    11    13   ar
    16    13    14   ar
    17     5     6   ar
    18     6     7   ar
    19     1    20    1
    20    20    21    1
    21    20    24    1
    22    24    25    2
    23    24    26   am
    24    26    27    1
    25    27    28    1
    26    28    29    1
    27    29    30    1
    28    29    31    1
    29     7     2   ar
    30    31    26    1
    31    14     8   ar
    32    21    22    1
    33    21    23    1
@<TRIPOS>MOLECULE
*****
 31 33 0 0 0
SMALL
GASTEIGER

@<TRIPOS>ATOM
      1 C         140.4767  142.3081  161.5747 C.3     1  UNL1        0.1219
      2 C         140.7596  142.3639  163.0468 C.ar    1  UNL1       -0.0121
      3 C         142.1688  142.5266  163.5341 C.ar    1  UNL1       -0.0038
      4 C         142.4516  142.5824  165.0061 C.ar    1  UNL1       -0.0003
      5 C         141.3252  142.4754  165.9908 C.ar    1  UNL1       -0.0000
      6 C         139.9159  142.3126  165.5035 C.ar    1  UNL1       -0.0003
      7 C         139.6331  142.2569  164.0315 C.ar    1  UNL1       -0.0038
      8 C         141.6080  142.5312  167.4629 C.ar    1  UNL1        0.0001
      9 C         140.5373  142.9725  168.4161 C.ar    1  UNL1        0.0023
     10 C         140.8201  143.0283  169.8882 C.ar    1  UNL1        0.0296
     11 C         142.1737  142.6427  170.4070 C.ar    1  UNL1        0.1401
     12 F         142.4566  142.6984  171.8790 F       1  UNL1       -0.2042
     13 C         143.2445  142.2013  169.4536 C.ar    1  UNL1        0.0296
     14 C         142.9616  142.1456  167.9816 C.ar    1  UNL1        0.0023
     15 C         141.2655  145.3738  159.1811 C.3     1  UNL1        0.1149
     16 N         141.4362  144.1037  159.9606 N.am    1  UNL1       -0.2757
     17 C         142.7373  143.3590  159.9056 C.3     1  UNL1        0.1149
     18 C         140.3060  143.5782  160.7951 C.2     1  UNL1        0.2312
     19 O         139.0050  144.3229  160.8501 O.2     1  UNL1       -0.2745
     20 C         140.3646  140.9823  160.8822 C.3     1  UNL1        0.1413
     21 N         139.3037  140.7657  159.8441 N.3     1  UNL1       -0.3144
     22 H         139.3729  139.8152  159.4804 H       1  UNL1        0.1193
     23 H         139.4326  141.4315  159.0821 H       1  UNL1        0.1193
     24 C         141.3133  139.8730  161.2278 C.2     1  UNL1        0.2406
     25 O         142.6335  139.7685  160.5235 O.2     1  UNL1       -0.2734
     26 N         140.9417  138.8682  162.2778 N.am    1  UNL1       -0.2756
     27 C         141.7832  137.7107  162.7273 C.3     1  UNL1        0.0964
     28 C         141.0250  136.9716  163.7900 C.3     1  UNL1        0.0585
     29 C         139.7150  137.6724  163.9970 C.3     1  UNL1        0.1824
     30 F         138.6445  137.2714  164.9681 F       1  UNL1       -0.2354
     31 C         139.6636  138.8445  163.0625 C.3     1  UNL1        0.1286
@<TRIPOS>BOND
     1    15    16    1
     2    16    17    1
     3    16    18   am
     4    18    19    2
     5     1    18    1
     6     1     2    1
     7     2     3   ar
     8     3     4   ar
     9     4     5   ar
    10     5     8    1
    11     8     9   ar
    12     9    10   ar
    13    10    11   ar
    14    11    12    1
    15    11    13   ar
    16    13    14   ar
    17     5     6   ar
    18     6     7   ar
    19     1    20    1
    20    20    21    1
    21    20    24    1
    22    24    25    2
    23    24    26   am
    24    26    27    1
    25    27    28    1
    26    28    29    1
    27    29    30    1
    28    29    31    1
    29     7     2   ar
    30    31    26    1
    31    14     8   ar
    32    21    22    1
    33    21    23    1
@<TRIPOS>MOLECULE
*****
 31 33 0 0 0
SMALL
GASTEIGER

@<TRIPOS>ATOM
      1 C         142.8312  142.9883  161.5318 C.3     1  UNL1        0.1219
      2 C         142.8471  142.5644  162.9706 C.ar    1  UNL1       -0.0121
      3 C         142.0755  141.3535  163.4043 C.ar    1  UNL1       -0.0038
      4 C         142.0915  140.9297  164.8431 C.ar    1  UNL1       -0.0003
      5 C         142.8790  141.7169  165.8481 C.ar    1  UNL1       -0.0000
      6 C         143.6506  142.9279  165.4144 C.ar    1  UNL1       -0.0003
      7 C         143.6346  143.3516  163.9756 C.ar    1  UNL1       -0.0038
      8 C         142.8949  141.2930  167.2870 C.ar    1  UNL1        0.0001
      9 C         143.2896  142.2719  168.3529 C.ar    1  UNL1        0.0023
     10 C         143.3055  141.8480  169.7917 C.ar    1  UNL1        0.0296
     11 C         142.9268  140.4454  170.1646 C.ar    1  UNL1        0.1401
     12 F         142.9427  140.0215  171.6033 F       1  UNL1       -0.2042
     13 C         142.5321  139.4665  169.0986 C.ar    1  UNL1        0.0296
     14 C         142.5162  139.8904  167.6599 C.ar    1  UNL1        0.0023
     15 C         144.0635  140.5396  158.6621 C.3     1  UNL1        0.1149
     16 N         143.1719  141.2239  159.6554 N.am    1  UNL1       -0.2757
     17 C         141.7292  140.8280  159.7657 C.3     1  UNL1        0.1149
     18 C         143.7228  142.3040  160.5384 C.2     1  UNL1        0.2312
     19 O         145.1655  142.6998  160.4282 O.2     1  UNL1       -0.2745
     20 C         141.9236  144.0964  161.0863 C.3     1  UNL1        0.1413
     21 N         142.0456  144.6539  159.6991 N.3     1  UNL1       -0.3144
     22 H         141.3562  145.3942  159.5683 H       1  UNL1        0.1193
     23 H         141.8808  143.9119  159.0188 H       1  UNL1        0.1193
     24 C         140.8941  144.6470  162.0281 C.2     1  UNL1        0.2406
     25 O         141.1331  145.9574  162.7177 O.2     1  UNL1       -0.2734
     26 N         139.6255  143.8872  162.2801 N.am    1  UNL1       -0.2756
     27 C         138.5107  144.3100  163.1903 C.3     1  UNL1        0.0964
     28 C         137.4452  143.2553  163.1390 C.3     1  UNL1        0.0585
     29 C         137.9017  142.1808  162.1971 C.3     1  UNL1        0.1824
     30 F         137.1437  140.9346  161.8474 F       1  UNL1       -0.2354
     31 C         139.2491  142.5713  161.6663 C.3     1  UNL1        0.1286
@<TRIPOS>BOND
     1    15    16    1
     2    16    17    1
     3    16    18   am
     4    18    19    2
     5     1    18    1
     6     1     2    1
     7     2     3   ar
     8     3     4   ar
     9     4     5   ar
    10     5     8    1
    11     8     9   ar
    12     9    10   ar
    13    10    11   ar
    14    11    12    1
    15    11    13   ar
    16    13    14   ar
    17     5     6   ar
    18     6     7   ar
    19     1    20    1
    20    20    21    1
    21    20    24    1
    22    24    25    2
    23    24    26   am
    24    26    27    1
    25    27    28    1
    26    28    29    1
    27    29    30    1
    28    29    31    1
    29     7     2   ar
    30    31    26    1
    31    14     8   ar
    32    21    22    1
    33    21    23    1
@<TRIPOS>MOLECULE
*****
 31 33 0 0 0
SMALL
GASTEIGER

@<TRIPOS>ATOM
      1 C         141.0666  143.1280  161.7226 C.3     1  UNL1        0.1219
      2 C         141.0089  142.7736  163.1791 C.ar    1  UNL1       -0.0121
      3 C         141.7752  141.5915  163.6942 C.ar    1  UNL1       -0.0038
      4 C         141.7174  141.2371  165.1506 C.ar    1  UNL1       -0.0003
      5 C         140.8933  142.0648  166.0918 C.ar    1  UNL1       -0.0000
      6 C         140.1270  143.2468  165.5766 C.ar    1  UNL1       -0.0003
      7 C         140.1848  143.6012  164.1203 C.ar    1  UNL1       -0.0038
      8 C         140.8356  141.7103  167.5482 C.ar    1  UNL1        0.0001
      9 C         139.8709  140.6670  168.0285 C.ar    1  UNL1        0.0023
     10 C         139.8131  140.3125  169.4849 C.ar    1  UNL1        0.0296
     11 C         140.7202  141.0014  170.4610 C.ar    1  UNL1        0.1401
     12 F         140.6625  140.6470  171.9173 F       1  UNL1       -0.2042
     13 C         141.6849  142.0448  169.9806 C.ar    1  UNL1        0.0296
     14 C         141.7426  142.3992  168.5243 C.ar    1  UNL1        0.0023
     15 C         138.8417  140.8476  159.3563 C.3     1  UNL1        0.1149
     16 N         139.2299  141.8619  160.3910 N.am    1  UNL1       -0.2757
     17 C         138.1694  142.6244  161.1287 C.3     1  UNL1        0.1149
     18 C         140.6784  142.1138  160.6880 C.2     1  UNL1        0.2312
     19 O         141.7389  141.3513  159.9503 O.2     1  UNL1       -0.2745
     20 C         141.5125  144.4967  161.3010 C.3     1  UNL1        0.1413
     21 N         142.7976  145.0626  161.8286 N.3     1  UNL1       -0.3144
     22 H         142.9433  145.9947  161.4407 H       1  UNL1        0.1193
     23 H         143.5723  144.4568  161.5580 H       1  UNL1        0.1193
     24 C         140.6733  145.2996  160.3517 C.2     1  UNL1        0.2406
     25 O         139.5048  146.0872  160.8657 O.2     1  UNL1       -0.2734
     26 N         141.0026  145.3148  158.8883 N.am    1  UNL1       -0.2756
     27 C         140.2583  146.0667  157.8250 C.3     1  UNL1        0.0964
     28 C         140.9297  145.7974  156.5108 C.3     1  UNL1        0.0585
     29 C         142.0889  144.8791  156.7621 C.3     1  UNL1        0.1824
     30 F         143.0365  144.3517  155.7260 F       1  UNL1       -0.2354
     31 C         142.1339  144.5809  158.2315 C.3     1  UNL1        0.1286
@<TRIPOS>BOND
     1    15    16    1
     2    16    17    1
     3    16    18   am
     4    18    19    2
     5     1    18    1
     6     1     2    1
     7     2     3   ar
     8     3     4   ar
     9     4     5   ar
    10     5     8    1
    11     8     9   ar
    12     9    10   ar
    13    10    11   ar
    14    11    12    1
    15    11    13   ar
    16    13    14   ar
    17     5     6   ar
    18     6     7   ar
    19     1    20    1
    20    20    21    1
    21    20    24    1
    22    24    25    2
    23    24    26   am
    24    26    27    1
    25    27    28    1
    26    28    29    1
    27    29    30    1
    28    29    31    1
    29     7     2   ar
    30    31    26    1
    31    14     8   ar
    32    21    22    1
    33    21    23    1
