@<TRIPOS>MOLECULE
*****
 25 27 0 0 0
SMALL
GASTEIGER

@<TRIPOS>ATOM
      1 O         140.9787  140.9632  163.7338 O.2     1  UNL1       -0.2699
      2 C         141.1913  140.1147  164.9524 C.2     1  UNL1        0.2490
      3 N         142.5558  140.0133  165.5670 N.am    1  UNL1       -0.2763
      4 C         140.0392  139.3677  165.5564 C.ar    1  UNL1        0.0575
      5 C         139.2984  139.9485  166.7243 C.ar    1  UNL1        0.0045
      6 C         138.1463  139.2016  167.3283 C.ar    1  UNL1        0.0001
      7 C         137.7351  137.8739  166.7644 C.ar    1  UNL1       -0.0001
      8 C         138.4759  137.2931  165.5966 C.ar    1  UNL1        0.0040
      9 C         139.6279  138.0400  164.9926 C.ar    1  UNL1        0.0758
     10 C         140.3687  137.4592  163.8247 C.3     1  UNL1        0.4187
     11 F         141.1095  136.8784  162.6568 F       1  UNL1       -0.1659
     12 F         141.3111  136.7690  164.7657 F       1  UNL1       -0.1659
     13 F         139.4263  138.1493  162.8837 F       1  UNL1       -0.1659
     14 C         143.7079  140.7603  164.9630 C.3     1  UNL1        0.0927
     15 C         143.9444  142.2387  165.0529 C.3     1  UNL1        0.0383
     16 C         145.2084  142.5521  164.3085 C.3     1  UNL1        0.0704
     17 N         145.7531  141.2672  163.7585 N.3     1  UNL1       -0.2960
     18 C         144.8256  140.1598  164.1630 C.3     1  UNL1        0.0887
     19 H         146.6840  141.0952  164.1382 H       1  UNL1        0.1233
     20 C         142.7683  139.1648  166.7856 C.3     1  UNL1        0.0936
     21 C         142.7068  139.7839  168.1505 C.3     1  UNL1        0.0199
     22 C         142.5759  139.0443  169.4489 C.3     1  UNL1        0.0017
     23 C         142.5537  140.0546  170.5576 C.3     1  UNL1        0.0001
     24 C         142.6708  141.4185  169.9443 C.3     1  UNL1        0.0001
     25 C         142.7655  141.2512  168.4566 C.3     1  UNL1        0.0017
@<TRIPOS>BOND
     1     1     2    2
     2     2     4    1
     3     4     5   ar
     4     5     6   ar
     5     6     7   ar
     6     7     8   ar
     7     8     9   ar
     8     9    10    1
     9    10    11    1
    10    10    12    1
    11    10    13    1
    12     2     3   am
    13     3    20    1
    14    20    21    1
    15    21    22    1
    16    22    23    1
    17    23    24    1
    18    24    25    1
    19    14     3    1
    20    14    15    1
    21    15    16    1
    22    16    17    1
    23    17    18    1
    24     9     4   ar
    25    25    21    1
    26    18    14    1
    27    17    19    1
@<TRIPOS>MOLECULE
*****
 25 27 0 0 0
SMALL
GASTEIGER

@<TRIPOS>ATOM
      1 O         143.9933  137.9901  167.1501 O.2     1  UNL1       -0.2699
      2 C         143.0326  138.8487  166.3821 C.2     1  UNL1        0.2490
      3 N         142.3943  140.0349  167.0419 N.am    1  UNL1       -0.2763
      4 C         142.7103  138.5211  164.9542 C.ar    1  UNL1        0.0575
      5 C         141.5847  137.5822  164.6359 C.ar    1  UNL1        0.0045
      6 C         141.2623  137.2546  163.2081 C.ar    1  UNL1        0.0001
      7 C         142.0655  137.8659  162.0986 C.ar    1  UNL1       -0.0001
      8 C         143.1911  138.8049  162.4169 C.ar    1  UNL1        0.0040
      9 C         143.5135  139.1325  163.8447 C.ar    1  UNL1        0.0758
     10 C         144.6391  140.0715  164.1630 C.3     1  UNL1        0.4187
     11 F         145.7647  141.0105  164.4813 F       1  UNL1       -0.1659
     12 F         143.7325  141.2412  163.9182 F       1  UNL1       -0.1659
     13 F         145.5456  138.9018  164.4077 F       1  UNL1       -0.1659
     14 C         142.7167  140.3625  168.4698 C.3     1  UNL1        0.0927
     15 C         142.5000  139.4639  169.6512 C.3     1  UNL1        0.0383
     16 C         142.9618  140.1923  170.8785 C.3     1  UNL1        0.0704
     17 N         143.4638  141.5411  170.4557 N.3     1  UNL1       -0.2960
     18 C         143.3124  141.6463  168.9669 C.3     1  UNL1        0.0887
     19 H         144.4462  141.6406  170.7115 H       1  UNL1        0.1233
     20 C         141.4336  140.8936  166.2740 C.3     1  UNL1        0.0936
     21 C         140.0707  140.3704  165.9291 C.3     1  UNL1        0.0199
     22 C         139.1929  139.5423  166.8199 C.3     1  UNL1        0.0017
     23 C         137.9260  139.2436  166.0742 C.3     1  UNL1        0.0001
     24 C         138.0210  139.8871  164.7225 C.3     1  UNL1        0.0001
     25 C         139.3465  140.5835  164.6329 C.3     1  UNL1        0.0017
@<TRIPOS>BOND
     1     1     2    2
     2     2     4    1
     3     4     5   ar
     4     5     6   ar
     5     6     7   ar
     6     7     8   ar
     7     8     9   ar
     8     9    10    1
     9    10    11    1
    10    10    12    1
    11    10    13    1
    12     2     3   am
    13     3    20    1
    14    20    21    1
    15    21    22    1
    16    22    23    1
    17    23    24    1
    18    24    25    1
    19    14     3    1
    20    14    15    1
    21    15    16    1
    22    16    17    1
    23    17    18    1
    24     9     4   ar
    25    25    21    1
    26    18    14    1
    27    17    19    1
@<TRIPOS>MOLECULE
*****
 25 27 0 0 0
SMALL
GASTEIGER

@<TRIPOS>ATOM
      1 O         144.5142  142.0328  165.1334 O.2     1  UNL1       -0.2699
      2 C         143.2119  142.1512  165.8682 C.2     1  UNL1        0.2490
      3 N         142.0699  142.9051  165.2538 N.am    1  UNL1       -0.2763
      4 C         143.0516  141.5156  167.2174 C.ar    1  UNL1        0.0575
      5 C         143.3018  142.3188  168.4593 C.ar    1  UNL1        0.0045
      6 C         143.1415  141.6833  169.8085 C.ar    1  UNL1        0.0001
      7 C         142.7311  140.2446  169.9158 C.ar    1  UNL1       -0.0001
      8 C         142.4809  139.4414  168.6739 C.ar    1  UNL1        0.0040
      9 C         142.6412  140.0769  167.3247 C.ar    1  UNL1        0.0758
     10 C         142.3910  139.2737  166.0829 C.3     1  UNL1        0.4187
     11 F         142.1409  138.4704  164.8410 F       1  UNL1       -0.1659
     12 F         143.8347  138.8674  166.0548 F       1  UNL1       -0.1659
     13 F         140.9474  139.6799  166.1109 F       1  UNL1       -0.1659
     14 C         142.2302  143.5407  163.9046 C.3     1  UNL1        0.0927
     15 C         142.0234  142.8650  162.5815 C.3     1  UNL1        0.0383
     16 C         142.2908  143.8702  161.5008 C.3     1  UNL1        0.0704
     17 N         142.6630  145.1673  162.1560 N.3     1  UNL1       -0.2960
     18 C         142.6256  144.9636  163.6417 C.3     1  UNL1        0.0887
     19 H         141.9980  145.8932  161.8892 H       1  UNL1        0.1233
     20 C         140.7676  143.0234  165.9886 C.3     1  UNL1        0.0936
     21 C         139.4846  143.1607  165.2236 C.3     1  UNL1        0.0199
     22 C         138.6980  142.0389  164.6130 C.3     1  UNL1        0.0017
     23 C         137.4902  142.6286  163.9470 C.3     1  UNL1        0.0001
     24 C         137.5305  144.1149  164.1460 C.3     1  UNL1        0.0001
     25 C         138.7631  144.4436  164.9350 C.3     1  UNL1        0.0017
@<TRIPOS>BOND
     1     1     2    2
     2     2     4    1
     3     4     5   ar
     4     5     6   ar
     5     6     7   ar
     6     7     8   ar
     7     8     9   ar
     8     9    10    1
     9    10    11    1
    10    10    12    1
    11    10    13    1
    12     2     3   am
    13     3    20    1
    14    20    21    1
    15    21    22    1
    16    22    23    1
    17    23    24    1
    18    24    25    1
    19    14     3    1
    20    14    15    1
    21    15    16    1
    22    16    17    1
    23    17    18    1
    24     9     4   ar
    25    25    21    1
    26    18    14    1
    27    17    19    1
@<TRIPOS>MOLECULE
*****
 25 27 0 0 0
SMALL
GASTEIGER

@<TRIPOS>ATOM
      1 O         143.0958  139.6023  165.6161 O.2     1  UNL1       -0.2699
      2 C         141.7794  140.0360  165.0426 C.2     1  UNL1        0.2490
      3 N         141.7404  141.0468  163.9350 N.am    1  UNL1       -0.2763
      4 C         140.5019  139.4589  165.5767 C.ar    1  UNL1        0.0575
      5 C         139.8162  140.1067  166.7429 C.ar    1  UNL1        0.0045
      6 C         138.5388  139.5297  167.2770 C.ar    1  UNL1        0.0001
      7 C         137.9472  138.3048  166.6448 C.ar    1  UNL1       -0.0001
      8 C         138.6329  137.6570  165.4786 C.ar    1  UNL1        0.0040
      9 C         139.9103  138.2341  164.9445 C.ar    1  UNL1        0.0758
     10 C         140.5960  137.5863  163.7783 C.3     1  UNL1        0.4187
     11 F         141.2818  136.9385  162.6120 F       1  UNL1       -0.1659
     12 F         139.7596  138.3990  162.8350 F       1  UNL1       -0.1659
     13 F         141.4325  136.7735  164.7215 F       1  UNL1       -0.1659
     14 C         143.0178  141.6239  163.4009 C.3     1  UNL1        0.0927
     15 C         144.0403  140.8939  162.5813 C.3     1  UNL1        0.0383
     16 C         145.1514  141.8512  162.2666 C.3     1  UNL1        0.0704
     17 N         144.8157  143.1728  162.8917 N.3     1  UNL1       -0.2960
     18 C         143.4970  143.0323  163.5928 C.3     1  UNL1        0.0887
     19 H         144.7491  143.8902  162.1697 H       1  UNL1        0.1233
     20 C         140.4240  141.4805  163.3614 C.3     1  UNL1        0.0936
     21 C         139.6396  142.5728  164.0262 C.3     1  UNL1        0.0199
     22 C         140.1775  143.5739  165.0052 C.3     1  UNL1        0.0017
     23 C         139.0501  144.4756  165.4127 C.3     1  UNL1        0.0001
     24 C         137.8155  144.0317  164.6854 C.3     1  UNL1        0.0001
     25 C         138.1799  142.8557  163.8285 C.3     1  UNL1        0.0017
@<TRIPOS>BOND
     1     1     2    2
     2     2     4    1
     3     4     5   ar
     4     5     6   ar
     5     6     7   ar
     6     7     8   ar
     7     8     9   ar
     8     9    10    1
     9    10    11    1
    10    10    12    1
    11    10    13    1
    12     2     3   am
    13     3    20    1
    14    20    21    1
    15    21    22    1
    16    22    23    1
    17    23    24    1
    18    24    25    1
    19    14     3    1
    20    14    15    1
    21    15    16    1
    22    16    17    1
    23    17    18    1
    24     9     4   ar
    25    25    21    1
    26    18    14    1
    27    17    19    1
@<TRIPOS>MOLECULE
*****
 25 27 0 0 0
SMALL
GASTEIGER

@<TRIPOS>ATOM
      1 O         142.1219  138.1271  165.4012 O.2     1  UNL1       -0.2699
      2 C         142.1571  139.4849  166.0378 C.2     1  UNL1        0.2490
      3 N         142.7593  140.6437  165.3000 N.am    1  UNL1       -0.2763
      4 C         141.5902  139.6837  167.4122 C.ar    1  UNL1        0.0575
      5 C         142.4674  139.5142  168.6171 C.ar    1  UNL1        0.0045
      6 C         141.9006  139.7131  169.9915 C.ar    1  UNL1        0.0001
      7 C         140.4564  140.0814  170.1611 C.ar    1  UNL1       -0.0001
      8 C         139.5792  140.2509  168.9562 C.ar    1  UNL1        0.0040
      9 C         140.1461  140.0520  167.5818 C.ar    1  UNL1        0.0758
     10 C         139.2688  140.2215  166.3769 C.3     1  UNL1        0.4187
     11 F         138.3916  140.3910  165.1721 F       1  UNL1       -0.1659
     12 F         138.9685  138.7519  166.3889 F       1  UNL1       -0.1659
     13 F         139.5691  141.6911  166.3650 F       1  UNL1       -0.1659
     14 C         143.3263  140.4448  163.9255 C.3     1  UNL1        0.0927
     15 C         142.5549  140.4823  162.6396 C.3     1  UNL1        0.0383
     16 C         143.5160  140.2343  161.5151 C.3     1  UNL1        0.0704
     17 N         144.8815  140.0434  162.1059 N.3     1  UNL1       -0.2960
     18 C         144.7642  140.1736  163.5958 C.3     1  UNL1        0.0887
     19 H         145.5173  140.7549  161.7453 H       1  UNL1        0.1233
     20 C         142.7946  142.0015  165.9366 C.3     1  UNL1        0.0936
     21 C         142.8202  143.2317  165.0786 C.3     1  UNL1        0.0199
     22 C         144.0471  143.9722  164.6357 C.3     1  UNL1        0.0017
     23 C         143.6086  145.1355  163.7963 C.3     1  UNL1        0.0001
     24 C         142.1106  145.1138  163.7205 C.3     1  UNL1        0.0001
     25 C         141.6234  143.9371  164.5130 C.3     1  UNL1        0.0017
@<TRIPOS>BOND
     1     1     2    2
     2     2     4    1
     3     4     5   ar
     4     5     6   ar
     5     6     7   ar
     6     7     8   ar
     7     8     9   ar
     8     9    10    1
     9    10    11    1
    10    10    12    1
    11    10    13    1
    12     2     3   am
    13     3    20    1
    14    20    21    1
    15    21    22    1
    16    22    23    1
    17    23    24    1
    18    24    25    1
    19    14     3    1
    20    14    15    1
    21    15    16    1
    22    16    17    1
    23    17    18    1
    24     9     4   ar
    25    25    21    1
    26    18    14    1
    27    17    19    1
@<TRIPOS>MOLECULE
*****
 25 27 0 0 0
SMALL
GASTEIGER

@<TRIPOS>ATOM
      1 O         140.8614  141.4826  161.2148 O.2     1  UNL1       -0.2699
      2 C         140.6880  141.3311  162.6970 C.2     1  UNL1        0.2490
      3 N         141.2925  140.1559  163.4065 N.am    1  UNL1       -0.2763
      4 C         139.9102  142.3548  163.4697 C.ar    1  UNL1        0.0575
      5 C         140.6280  143.3362  164.3481 C.ar    1  UNL1        0.0045
      6 C         139.8502  144.3599  165.1208 C.ar    1  UNL1        0.0001
      7 C         138.3546  144.4022  165.0150 C.ar    1  UNL1       -0.0001
      8 C         137.6367  143.4208  164.1366 C.ar    1  UNL1        0.0040
      9 C         138.4145  142.3971  163.3639 C.ar    1  UNL1        0.0758
     10 C         137.6967  141.4157  162.4855 C.3     1  UNL1        0.4187
     11 F         136.9788  140.4344  161.6071 F       1  UNL1       -0.1659
     12 F         137.8345  142.3547  161.3239 F       1  UNL1       -0.1659
     13 F         137.5589  140.4768  163.6472 F       1  UNL1       -0.1659
     14 C         142.0704  139.1322  162.6338 C.3     1  UNL1        0.0927
     15 C         143.5554  139.1281  162.4225 C.3     1  UNL1        0.0383
     16 C         143.9026  137.9262  161.5949 C.3     1  UNL1        0.0704
     17 N         142.6320  137.1875  161.2946 N.3     1  UNL1       -0.2960
     18 C         141.4996  137.9328  161.9368 C.3     1  UNL1        0.0887
     19 H         142.6834  136.2420  161.6740 H       1  UNL1        0.1233
     20 C         141.1192  140.0043  164.8887 C.3     1  UNL1        0.0936
     21 C         139.9387  139.2558  165.4331 C.3     1  UNL1        0.0199
     22 C         139.4979  137.8831  165.0190 C.3     1  UNL1        0.0017
     23 C         138.2786  137.5274  165.8172 C.3     1  UNL1        0.0001
     24 C         137.9659  138.6804  166.7244 C.3     1  UNL1        0.0001
     25 C         138.9919  139.7485  166.4871 C.3     1  UNL1        0.0017
@<TRIPOS>BOND
     1     1     2    2
     2     2     4    1
     3     4     5   ar
     4     5     6   ar
     5     6     7   ar
     6     7     8   ar
     7     8     9   ar
     8     9    10    1
     9    10    11    1
    10    10    12    1
    11    10    13    1
    12     2     3   am
    13     3    20    1
    14    20    21    1
    15    21    22    1
    16    22    23    1
    17    23    24    1
    18    24    25    1
    19    14     3    1
    20    14    15    1
    21    15    16    1
    22    16    17    1
    23    17    18    1
    24     9     4   ar
    25    25    21    1
    26    18    14    1
    27    17    19    1
@<TRIPOS>MOLECULE
*****
 25 27 0 0 0
SMALL
GASTEIGER

@<TRIPOS>ATOM
      1 O         137.1411  141.7645  162.7114 O.2     1  UNL1       -0.2699
      2 C         138.3938  141.3481  163.4237 C.2     1  UNL1        0.2490
      3 N         139.6100  142.2248  163.3767 N.am    1  UNL1       -0.2763
      4 C         138.4303  140.0549  164.1829 C.ar    1  UNL1        0.0575
      5 C         138.0849  140.0320  165.6424 C.ar    1  UNL1        0.0045
      6 C         138.1213  138.7389  166.4016 C.ar    1  UNL1        0.0001
      7 C         138.5033  137.4686  165.7014 C.ar    1  UNL1       -0.0001
      8 C         138.8487  137.4915  164.2419 C.ar    1  UNL1        0.0040
      9 C         138.8122  138.7846  163.4826 C.ar    1  UNL1        0.0758
     10 C         139.1577  138.8074  162.0231 C.3     1  UNL1        0.4187
     11 F         139.5031  138.8302  160.5636 F       1  UNL1       -0.1659
     12 F         140.6035  139.0083  162.3685 F       1  UNL1       -0.1659
     13 F         137.7119  138.6065  161.6778 F       1  UNL1       -0.1659
     14 C         139.5735  143.5180  162.6175 C.3     1  UNL1        0.0927
     15 C         139.4799  144.8899  163.2168 C.3     1  UNL1        0.0383
     16 C         139.4728  145.8861  162.0953 C.3     1  UNL1        0.0704
     17 N         139.5620  145.1298  160.8029 N.3     1  UNL1       -0.2960
     18 C         139.6242  143.6662  161.1257 C.3     1  UNL1        0.0887
     19 H         140.4021  145.4086  160.2961 H       1  UNL1        0.1233
     20 C         140.8627  141.8084  164.0890 C.3     1  UNL1        0.0936
     21 C         140.9398  141.8966  165.5845 C.3     1  UNL1        0.0199
     22 C         141.6504  140.9339  166.4890 C.3     1  UNL1        0.0017
     23 C         141.4696  141.4053  167.9015 C.3     1  UNL1        0.0001
     24 C         140.6472  142.6595  167.8699 C.3     1  UNL1        0.0001
     25 C         140.3198  142.9631  166.4379 C.3     1  UNL1        0.0017
@<TRIPOS>BOND
     1     1     2    2
     2     2     4    1
     3     4     5   ar
     4     5     6   ar
     5     6     7   ar
     6     7     8   ar
     7     8     9   ar
     8     9    10    1
     9    10    11    1
    10    10    12    1
    11    10    13    1
    12     2     3   am
    13     3    20    1
    14    20    21    1
    15    21    22    1
    16    22    23    1
    17    23    24    1
    18    24    25    1
    19    14     3    1
    20    14    15    1
    21    15    16    1
    22    16    17    1
    23    17    18    1
    24     9     4   ar
    25    25    21    1
    26    18    14    1
    27    17    19    1
@<TRIPOS>MOLECULE
*****
 25 27 0 0 0
SMALL
GASTEIGER

@<TRIPOS>ATOM
      1 O         139.2563  139.5185  167.5235 O.2     1  UNL1       -0.2699
      2 C         139.8731  140.1444  166.3078 C.2     1  UNL1        0.2490
      3 N         141.2309  140.7756  166.3963 N.am    1  UNL1       -0.2763
      4 C         139.1319  140.1392  165.0037 C.ar    1  UNL1        0.0575
      5 C         138.2638  141.3040  164.6298 C.ar    1  UNL1        0.0045
      6 C         137.5227  141.2989  163.3257 C.ar    1  UNL1        0.0001
      7 C         137.6496  140.1290  162.3956 C.ar    1  UNL1       -0.0001
      8 C         138.5176  138.9642  162.7695 C.ar    1  UNL1        0.0040
      9 C         139.2588  138.9693  164.0736 C.ar    1  UNL1        0.0758
     10 C         140.1268  137.8046  164.4475 C.3     1  UNL1        0.4187
     11 F         140.9949  136.6398  164.8214 F       1  UNL1       -0.1659
     12 F         139.0033  137.2269  165.2563 F       1  UNL1       -0.1659
     13 F         141.2503  138.3822  163.6387 F       1  UNL1       -0.1659
     14 C         141.9721  140.7807  167.7004 C.3     1  UNL1        0.0927
     15 C         142.3443  141.9952  168.4982 C.3     1  UNL1        0.0383
     16 C         143.0734  141.5374  169.7265 C.3     1  UNL1        0.0704
     17 N         143.1518  140.0399  169.6879 N.3     1  UNL1       -0.2960
     18 C         142.4711  139.5722  168.4356 C.3     1  UNL1        0.0887
     19 H         142.6826  139.6475  170.5041 H       1  UNL1        0.1233
     20 C         141.8477  141.4015  165.1806 C.3     1  UNL1        0.0936
     21 C         143.2369  141.0194  164.7633 C.3     1  UNL1        0.0199
     22 C         143.8089  139.6327  164.7682 C.3     1  UNL1        0.0017
     23 C         145.2235  139.7131  164.2757 C.3     1  UNL1        0.0001
     24 C         145.5257  141.1495  163.9663 C.3     1  UNL1        0.0001
     25 C         144.2979  141.9567  164.2677 C.3     1  UNL1        0.0017
@<TRIPOS>BOND
     1     1     2    2
     2     2     4    1
     3     4     5   ar
     4     5     6   ar
     5     6     7   ar
     6     7     8   ar
     7     8     9   ar
     8     9    10    1
     9    10    11    1
    10    10    12    1
    11    10    13    1
    12     2     3   am
    13     3    20    1
    14    20    21    1
    15    21    22    1
    16    22    23    1
    17    23    24    1
    18    24    25    1
    19    14     3    1
    20    14    15    1
    21    15    16    1
    22    16    17    1
    23    17    18    1
    24     9     4   ar
    25    25    21    1
    26    18    14    1
    27    17    19    1
@<TRIPOS>MOLECULE
*****
 25 27 0 0 0
SMALL
GASTEIGER

@<TRIPOS>ATOM
      1 O         141.8842  143.1880  165.0433 O.2     1  UNL1       -0.2699
      2 C         141.4830  141.7728  164.7498 C.2     1  UNL1        0.2490
      3 N         140.2545  141.4951  163.9352 N.am    1  UNL1       -0.2763
      4 C         142.3103  140.6352  165.2711 C.ar    1  UNL1        0.0575
      5 C         142.0223  140.0571  166.6249 C.ar    1  UNL1        0.0045
      6 C         142.8495  138.9196  167.1461 C.ar    1  UNL1        0.0001
      7 C         143.9647  138.3602  166.3135 C.ar    1  UNL1       -0.0001
      8 C         144.2527  138.9383  164.9597 C.ar    1  UNL1        0.0040
      9 C         143.4255  140.0758  164.4385 C.ar    1  UNL1        0.0758
     10 C         143.7135  140.6539  163.0846 C.3     1  UNL1        0.4187
     11 F         144.0015  141.2320  161.7308 F       1  UNL1       -0.1659
     12 F         142.8123  139.6323  162.4567 F       1  UNL1       -0.1659
     13 F         144.6147  141.6754  163.7125 F       1  UNL1       -0.1659
     14 C         139.4272  142.6326  163.4139 C.3     1  UNL1        0.0927
     15 C         138.1391  143.1278  164.0017 C.3     1  UNL1        0.0383
     16 C         137.6586  144.2759  163.1645 C.3     1  UNL1        0.0704
     17 N         138.6498  144.4903  162.0592 N.3     1  UNL1       -0.2960
     18 C         139.7429  143.4746  162.2134 C.3     1  UNL1        0.0887
     19 H         139.0398  145.4307  162.1215 H       1  UNL1        0.1233
     20 C         139.8533  140.0798  163.6416 C.3     1  UNL1        0.0936
     21 C         139.1662  139.2614  164.6944 C.3     1  UNL1        0.0199
     22 C         138.3338  139.7952  165.8223 C.3     1  UNL1        0.0017
     23 C         137.8440  138.6292  166.6290 C.3     1  UNL1        0.0001
     24 C         138.3738  137.3749  165.9996 C.3     1  UNL1        0.0001
     25 C         139.1909  137.7656  164.8039 C.3     1  UNL1        0.0017
@<TRIPOS>BOND
     1     1     2    2
     2     2     4    1
     3     4     5   ar
     4     5     6   ar
     5     6     7   ar
     6     7     8   ar
     7     8     9   ar
     8     9    10    1
     9    10    11    1
    10    10    12    1
    11    10    13    1
    12     2     3   am
    13     3    20    1
    14    20    21    1
    15    21    22    1
    16    22    23    1
    17    23    24    1
    18    24    25    1
    19    14     3    1
    20    14    15    1
    21    15    16    1
    22    16    17    1
    23    17    18    1
    24     9     4   ar
    25    25    21    1
    26    18    14    1
    27    17    19    1
