@<TRIPOS>MOLECULE
*****
 43 49 0 0 0
SMALL
GASTEIGER

@<TRIPOS>ATOM
      1 C         142.3055  138.6614  159.7748 C.ar    1  UNL1        0.0508
      2 C         143.4239  138.1976  160.6604 C.ar    1  UNL1        0.0147
      3 C         143.8760  139.0522  161.8073 C.ar    1  UNL1        0.0019
      4 C         143.2098  140.3705  162.0686 C.ar    1  UNL1        0.0090
      5 C         142.0914  140.8342  161.1830 C.ar    1  UNL1        0.0307
      6 S         141.2512  142.0767  161.1946 S.2     1  UNL1       -0.0869
      7 C         140.2798  141.9901  160.0549 C.ar    1  UNL1        0.0295
      8 C         139.2079  142.9240  159.5766 C.ar    1  UNL1        0.0065
      9 C         138.3758  142.5618  158.3823 C.ar    1  UNL1        0.0005
     10 C         138.6156  141.2657  157.6663 C.ar    1  UNL1        0.0000
     11 C         139.6876  140.3318  158.1446 C.ar    1  UNL1        0.0006
     12 C         140.5197  140.6940  159.3389 C.ar    1  UNL1        0.0077
     13 C         141.6393  139.9796  160.0361 C.ar    1  UNL1        0.0200
     14 C         143.6620  141.2250  163.2154 C.ar    1  UNL1        0.0352
     15 C         144.8430  142.1354  163.0524 C.ar    1  UNL1        0.0031
     16 C         145.2952  142.9900  164.1992 C.ar    1  UNL1        0.0003
     17 C         144.5664  142.9342  165.5091 C.ar    1  UNL1        0.0062
     18 C         143.3854  142.0238  165.6721 C.ar    1  UNL1        0.0736
     19 C         142.6567  141.9680  166.9820 C.ar    1  UNL1        0.2030
     20 O         143.1088  142.8225  168.1289 O.2     1  UNL1       -0.2863
     21 C         141.4757  141.0576  167.1450 C.ar    1  UNL1        0.0955
     22 C         141.0235  140.2030  165.9981 C.ar    1  UNL1        0.2024
     23 O         141.7523  140.2588  164.6883 O.2     1  UNL1       -0.4398
     24 C         142.9332  141.1692  164.5252 C.ar    1  UNL1        0.1498
     25 N         139.8426  139.2927  166.1612 N.pl3   1  UNL1       -0.2742
     26 C         138.8489  139.5420  167.2568 C.3     1  UNL1        0.1257
     27 C         137.6680  138.6317  167.4198 C.3     1  UNL1        0.1637
     28 O         137.4807  137.4720  166.4872 O.3     1  UNL1       -0.3501
     29 C         138.4743  137.2225  165.3916 C.3     1  UNL1        0.1637
     30 C         139.6552  138.1329  165.2285 C.3     1  UNL1        0.1257
     31 C         142.5825  137.8623  157.3182 C.2     1  UNL1        0.2425
     32 O         143.7636  138.7723  157.1553 O.2     1  UNL1       -0.2733
     33 N         141.8534  137.8067  158.6279 N.am    1  UNL1       -0.2828
     34 H         141.0781  137.2094  158.7348 H       1  UNL1        0.1549
     35 C         142.1303  137.0077  156.1714 C.3     1  UNL1        0.1588
     36 N         142.5061  132.5301  156.4172 N.3     1  UNL1       -0.2703
     37 C         143.3516  133.4031  157.2964 C.3     1  UNL1        0.0897
     38 C         143.2264  134.8956  157.2145 C.3     1  UNL1        0.0900
     39 N         142.2556  135.5152  156.2533 N.3     1  UNL1       -0.2626
     40 C         141.4101  134.6422  155.3741 C.3     1  UNL1        0.0900
     41 C         141.5353  133.1497  155.4560 C.3     1  UNL1        0.0897
     42 C         143.8337  130.4205  157.1499 C.3     1  UNL1        0.0188
     43 C         142.6314  131.0376  156.4991 C.3     1  UNL1        0.0722
@<TRIPOS>BOND
     1    42    43    1
     2    43    36    1
     3    36    37    1
     4    37    38    1
     5    38    39    1
     6    39    35    1
     7    35    31    1
     8    31    32    2
     9    31    33   am
    10    33     1    1
    11     1     2   ar
    12     2     3   ar
    13     3     4   ar
    14     4    14    1
    15    14    15   ar
    16    15    16   ar
    17    16    17   ar
    18    17    18   ar
    19    18    19   ar
    20    19    20    2
    21    19    21   ar
    22    21    22   ar
    23    22    25    1
    24    25    26    1
    25    26    27    1
    26    27    28    1
    27    28    29    1
    28    29    30    1
    29    22    23   ar
    30    23    24   ar
    31     4     5   ar
    32     5     6   ar
    33     6     7   ar
    34     7     8   ar
    35     8     9   ar
    36     9    10   ar
    37    10    11   ar
    38    11    12   ar
    39    12    13   ar
    40    39    40    1
    41    40    41    1
    42    41    36    1
    43    13     1   ar
    44    24    14   ar
    45    13     5   ar
    46    24    18   ar
    47    12     7   ar
    48    30    25    1
    49    33    34    1
@<TRIPOS>MOLECULE
*****
 43 49 0 0 0
SMALL
GASTEIGER

@<TRIPOS>ATOM
      1 C         143.1832  139.5141  160.4626 C.ar    1  UNL1        0.0508
      2 C         143.9003  139.7818  159.1725 C.ar    1  UNL1        0.0147
      3 C         143.1789  139.6244  157.8668 C.ar    1  UNL1        0.0019
      4 C         141.7405  139.1993  157.8512 C.ar    1  UNL1        0.0090
      5 C         141.0235  138.9316  159.1412 C.ar    1  UNL1        0.0307
      6 S         139.6170  138.5025  159.4375 S.2     1  UNL1       -0.0869
      7 C         139.4692  138.3947  160.9263 C.ar    1  UNL1        0.0295
      8 C         138.3069  138.0134  161.7945 C.ar    1  UNL1        0.0065
      9 C         138.4598  137.9945  163.2865 C.ar    1  UNL1        0.0005
     10 C         139.7749  138.3570  163.9104 C.ar    1  UNL1        0.0000
     11 C         140.9371  138.7384  163.0422 C.ar    1  UNL1        0.0006
     12 C         140.7842  138.7572  161.5502 C.ar    1  UNL1        0.0077
     13 C         141.7448  139.0890  160.4469 C.ar    1  UNL1        0.0200
     14 C         141.0192  139.0418  156.5454 C.ar    1  UNL1        0.0352
     15 C         140.2775  140.2036  155.9535 C.ar    1  UNL1        0.0031
     16 C         139.5561  140.0462  154.6478 C.ar    1  UNL1        0.0003
     17 C         139.5764  138.7271  153.9340 C.ar    1  UNL1        0.0062
     18 C         140.3181  137.5654  154.5259 C.ar    1  UNL1        0.0736
     19 C         140.3384  136.2463  153.8121 C.ar    1  UNL1        0.2030
     20 O         139.6171  136.0888  152.5064 O.2     1  UNL1       -0.2863
     21 C         141.0801  135.0846  154.4040 C.ar    1  UNL1        0.0955
     22 C         141.8015  135.2420  155.7098 C.ar    1  UNL1        0.2024
     23 O         141.7812  136.5611  156.4236 O.2     1  UNL1       -0.4398
     24 C         141.0395  137.7228  155.8317 C.ar    1  UNL1        0.1498
     25 N         142.5432  134.0803  156.3016 N.pl3   1  UNL1       -0.2742
     26 C         142.1585  132.6782  155.9326 C.3     1  UNL1        0.1257
     27 C         142.9002  131.5166  156.5245 C.3     1  UNL1        0.1637
     28 O         144.0265  131.7569  157.4854 O.3     1  UNL1       -0.3501
     29 C         144.4113  133.1589  157.8545 C.3     1  UNL1        0.1637
     30 C         143.6696  134.3206  157.2626 C.3     1  UNL1        0.1257
     31 C         143.8399  140.9747  162.5085 C.2     1  UNL1        0.2425
     32 O         143.0539  142.1202  161.9431 O.2     1  UNL1       -0.2733
     33 N         143.9046  139.6716  161.7683 N.am    1  UNL1       -0.2828
     34 H         144.4206  138.9197  162.1394 H       1  UNL1        0.1549
     35 C         144.5613  141.1321  163.8141 C.3     1  UNL1        0.1588
     36 N         142.4903  140.0846  167.6695 N.3     1  UNL1       -0.2703
     37 C         142.9853  138.9959  166.7642 C.3     1  UNL1        0.0897
     38 C         143.6756  139.3450  165.4791 C.3     1  UNL1        0.0900
     39 N         143.8710  140.7830  165.0992 N.3     1  UNL1       -0.2626
     40 C         143.3760  141.8717  166.0045 C.3     1  UNL1        0.0900
     41 C         142.6856  141.5226  167.2896 C.3     1  UNL1        0.0897
     42 C         142.5393  138.9873  170.0239 C.3     1  UNL1        0.0188
     43 C         141.7999  139.7355  168.9546 C.3     1  UNL1        0.0722
@<TRIPOS>BOND
     1    42    43    1
     2    43    36    1
     3    36    37    1
     4    37    38    1
     5    38    39    1
     6    39    35    1
     7    35    31    1
     8    31    32    2
     9    31    33   am
    10    33     1    1
    11     1     2   ar
    12     2     3   ar
    13     3     4   ar
    14     4    14    1
    15    14    15   ar
    16    15    16   ar
    17    16    17   ar
    18    17    18   ar
    19    18    19   ar
    20    19    20    2
    21    19    21   ar
    22    21    22   ar
    23    22    25    1
    24    25    26    1
    25    26    27    1
    26    27    28    1
    27    28    29    1
    28    29    30    1
    29    22    23   ar
    30    23    24   ar
    31     4     5   ar
    32     5     6   ar
    33     6     7   ar
    34     7     8   ar
    35     8     9   ar
    36     9    10   ar
    37    10    11   ar
    38    11    12   ar
    39    12    13   ar
    40    39    40    1
    41    40    41    1
    42    41    36    1
    43    13     1   ar
    44    24    14   ar
    45    13     5   ar
    46    24    18   ar
    47    12     7   ar
    48    30    25    1
    49    33    34    1
@<TRIPOS>MOLECULE
*****
 43 49 0 0 0
SMALL
GASTEIGER

@<TRIPOS>ATOM
      1 C         141.1094  145.0293  159.1089 C.ar    1  UNL1        0.0508
      2 C         140.5150  145.5680  160.3764 C.ar    1  UNL1        0.0147
      3 C         141.0709  145.1460  161.7041 C.ar    1  UNL1        0.0019
      4 C         142.2212  144.1852  161.7643 C.ar    1  UNL1        0.0090
      5 C         142.8156  143.6465  160.4968 C.ar    1  UNL1        0.0307
      6 S         143.9454  142.6927  160.2442 S.2     1  UNL1       -0.0869
      7 C         144.0878  142.5253  158.7604 C.ar    1  UNL1        0.0295
      8 C         145.0315  141.7084  157.9285 C.ar    1  UNL1        0.0065
      9 C         144.9333  141.7418  156.4321 C.ar    1  UNL1        0.0005
     10 C         143.8915  142.5922  155.7677 C.ar    1  UNL1        0.0000
     11 C         142.9478  143.4090  156.5996 C.ar    1  UNL1        0.0006
     12 C         143.0460  143.3756  158.0959 C.ar    1  UNL1        0.0077
     13 C         142.2597  144.0685  159.1691 C.ar    1  UNL1        0.0200
     14 C         142.7771  143.7632  163.0920 C.ar    1  UNL1        0.0352
     15 C         143.8428  144.5852  163.7545 C.ar    1  UNL1        0.0031
     16 C         144.3987  144.1632  165.0822 C.ar    1  UNL1        0.0003
     17 C         143.8890  142.9192  165.7475 C.ar    1  UNL1        0.0062
     18 C         142.8234  142.0972  165.0851 C.ar    1  UNL1        0.0736
     19 C         142.3137  140.8532  165.7504 C.ar    1  UNL1        0.2030
     20 O         142.8696  140.4312  167.0782 O.2     1  UNL1       -0.2863
     21 C         141.2481  140.0312  165.0880 C.ar    1  UNL1        0.0955
     22 C         140.6921  140.4533  163.7603 C.ar    1  UNL1        0.2024
     23 O         141.2018  141.6973  163.0949 O.2     1  UNL1       -0.4398
     24 C         142.2674  142.5192  163.7573 C.ar    1  UNL1        0.1498
     25 N         139.6265  139.6313  163.0979 N.pl3   1  UNL1       -0.2742
     26 C         139.3978  138.2126  163.5279 C.3     1  UNL1        0.1257
     27 C         138.3322  137.3906  162.8655 C.3     1  UNL1        0.1637
     28 O         137.4953  137.9873  161.7731 O.3     1  UNL1       -0.3501
     29 C         137.7239  139.4060  161.3430 C.3     1  UNL1        0.1637
     30 C         138.7895  140.2280  162.0054 C.3     1  UNL1        0.1257
     31 C         139.5807  144.5663  157.0598 C.2     1  UNL1        0.2425
     32 O         139.1638  143.2592  157.6661 O.2     1  UNL1       -0.2733
     33 N         140.5535  145.4514  157.7811 N.am    1  UNL1       -0.2828
     34 H         140.8270  146.3093  157.3832 H       1  UNL1        0.1549
     35 C         139.0248  144.9884  155.7321 C.3     1  UNL1        0.1588
     36 N         140.1145  149.0003  154.0095 N.3     1  UNL1       -0.2703
     37 C         139.1310  148.9110  155.1385 C.3     1  UNL1        0.0897
     38 C         138.7677  147.5737  155.7127 C.3     1  UNL1        0.0900
     39 N         139.3880  146.3257  155.1579 N.3     1  UNL1       -0.2626
     40 C         140.3715  146.4150  154.0288 C.3     1  UNL1        0.0900
     41 C         140.7348  147.7522  153.4546 C.3     1  UNL1        0.0897
     42 C         141.1787  151.3541  154.2869 C.3     1  UNL1        0.0188
     43 C         140.4778  150.3376  153.4352 C.3     1  UNL1        0.0722
@<TRIPOS>BOND
     1    42    43    1
     2    43    36    1
     3    36    37    1
     4    37    38    1
     5    38    39    1
     6    39    35    1
     7    35    31    1
     8    31    32    2
     9    31    33   am
    10    33     1    1
    11     1     2   ar
    12     2     3   ar
    13     3     4   ar
    14     4    14    1
    15    14    15   ar
    16    15    16   ar
    17    16    17   ar
    18    17    18   ar
    19    18    19   ar
    20    19    20    2
    21    19    21   ar
    22    21    22   ar
    23    22    25    1
    24    25    26    1
    25    26    27    1
    26    27    28    1
    27    28    29    1
    28    29    30    1
    29    22    23   ar
    30    23    24   ar
    31     4     5   ar
    32     5     6   ar
    33     6     7   ar
    34     7     8   ar
    35     8     9   ar
    36     9    10   ar
    37    10    11   ar
    38    11    12   ar
    39    12    13   ar
    40    39    40    1
    41    40    41    1
    42    41    36    1
    43    13     1   ar
    44    24    14   ar
    45    13     5   ar
    46    24    18   ar
    47    12     7   ar
    48    30    25    1
    49    33    34    1
@<TRIPOS>MOLECULE
*****
 43 49 0 0 0
SMALL
GASTEIGER

@<TRIPOS>ATOM
      1 C         141.0314  140.2102  157.2416 C.ar    1  UNL1        0.0508
      2 C         142.0578  140.5908  158.2670 C.ar    1  UNL1        0.0147
      3 C         141.7741  141.6995  159.2367 C.ar    1  UNL1        0.0019
      4 C         140.4639  142.4276  159.1808 C.ar    1  UNL1        0.0090
      5 C         139.4374  142.0471  158.1554 C.ar    1  UNL1        0.0307
      6 S         138.0667  142.5805  157.8612 S.2     1  UNL1       -0.0869
      7 C         137.5033  141.8015  156.7098 C.ar    1  UNL1        0.0295
      8 C         136.1913  141.8851  155.9876 C.ar    1  UNL1        0.0065
      9 C         135.9018  140.9539  154.8480 C.ar    1  UNL1        0.0005
     10 C         136.9244  139.9389  154.4305 C.ar    1  UNL1        0.0000
     11 C         138.2364  139.8553  155.1527 C.ar    1  UNL1        0.0006
     12 C         138.5258  140.7865  156.2923 C.ar    1  UNL1        0.0077
     13 C         139.7212  140.9383  157.1857 C.ar    1  UNL1        0.0200
     14 C         140.1801  143.5364  160.1505 C.ar    1  UNL1        0.0352
     15 C         140.3321  144.9656  159.7210 C.ar    1  UNL1        0.0031
     16 C         140.0483  146.0743  160.6905 C.ar    1  UNL1        0.0003
     17 C         139.6126  145.7539  162.0896 C.ar    1  UNL1        0.0062
     18 C         139.4607  144.3248  162.5191 C.ar    1  UNL1        0.0736
     19 C         139.0250  144.0044  163.9183 C.ar    1  UNL1        0.2030
     20 O         138.7412  145.1131  164.8879 O.2     1  UNL1       -0.2863
     21 C         138.8730  142.5753  164.3478 C.ar    1  UNL1        0.0955
     22 C         139.1568  141.4665  163.3781 C.ar    1  UNL1        0.2024
     23 O         139.5925  141.7869  161.9790 O.2     1  UNL1       -0.4398
     24 C         139.7444  143.2160  161.5495 C.ar    1  UNL1        0.1498
     25 N         139.0048  140.0374  163.8076 N.pl3   1  UNL1       -0.2742
     26 C         138.6865  139.7136  165.2372 C.3     1  UNL1        0.1257
     27 C         138.5345  138.2845  165.6667 C.3     1  UNL1        0.1637
     28 O         138.7009  137.1791  164.6666 O.3     1  UNL1       -0.3501
     29 C         139.0193  137.5028  163.2370 C.3     1  UNL1        0.1637
     30 C         139.1712  138.9319  162.8075 C.3     1  UNL1        0.1257
     31 C         140.6905  137.7523  156.4715 C.2     1  UNL1        0.2425
     32 O         139.7822  137.5120  157.6406 O.2     1  UNL1       -0.2733
     33 N         141.3152  139.1014  156.2719 N.am    1  UNL1       -0.2828
     34 H         141.9114  139.2591  155.5045 H       1  UNL1        0.1549
     35 C         140.9744  136.6436  155.5019 C.3     1  UNL1        0.1588
     36 N         143.2851  133.0213  156.8396 N.3     1  UNL1       -0.2703
     37 C         142.1770  132.8766  155.8390 C.3     1  UNL1        0.0897
     38 C         141.4068  134.0840  155.3931 C.3     1  UNL1        0.0900
     39 N         141.7446  135.4362  155.9478 N.3     1  UNL1       -0.2626
     40 C         142.8527  135.5808  156.9484 C.3     1  UNL1        0.0900
     41 C         143.6229  134.3734  157.3943 C.3     1  UNL1        0.0897
     42 C         145.3751  131.9800  157.9786 C.3     1  UNL1        0.0188
     43 C         144.0553  131.8138  157.2855 C.3     1  UNL1        0.0722
@<TRIPOS>BOND
     1    42    43    1
     2    43    36    1
     3    36    37    1
     4    37    38    1
     5    38    39    1
     6    39    35    1
     7    35    31    1
     8    31    32    2
     9    31    33   am
    10    33     1    1
    11     1     2   ar
    12     2     3   ar
    13     3     4   ar
    14     4    14    1
    15    14    15   ar
    16    15    16   ar
    17    16    17   ar
    18    17    18   ar
    19    18    19   ar
    20    19    20    2
    21    19    21   ar
    22    21    22   ar
    23    22    25    1
    24    25    26    1
    25    26    27    1
    26    27    28    1
    27    28    29    1
    28    29    30    1
    29    22    23   ar
    30    23    24   ar
    31     4     5   ar
    32     5     6   ar
    33     6     7   ar
    34     7     8   ar
    35     8     9   ar
    36     9    10   ar
    37    10    11   ar
    38    11    12   ar
    39    12    13   ar
    40    39    40    1
    41    40    41    1
    42    41    36    1
    43    13     1   ar
    44    24    14   ar
    45    13     5   ar
    46    24    18   ar
    47    12     7   ar
    48    30    25    1
    49    33    34    1
@<TRIPOS>MOLECULE
*****
 43 49 0 0 0
SMALL
GASTEIGER

@<TRIPOS>ATOM
      1 C         138.4823  140.9827  158.8003 C.ar    1  UNL1        0.0508
      2 C         138.1210  142.1702  159.6425 C.ar    1  UNL1        0.0147
      3 C         139.1192  142.7362  160.6085 C.ar    1  UNL1        0.0019
      4 C         140.4788  142.1148  160.7322 C.ar    1  UNL1        0.0090
      5 C         140.8401  140.9273  159.8900 C.ar    1  UNL1        0.0307
      6 S         142.0935  140.1089  159.7940 S.2     1  UNL1       -0.0869
      7 C         141.8700  139.0370  158.7687 C.ar    1  UNL1        0.0295
      8 C         142.7537  137.9392  158.2553 C.ar    1  UNL1        0.0065
      9 C         142.2459  136.9974  157.2041 C.ar    1  UNL1        0.0005
     10 C         140.8543  137.1533  156.6665 C.ar    1  UNL1        0.0000
     11 C         139.9705  138.2511  157.1799 C.ar    1  UNL1        0.0006
     12 C         140.4783  139.1930  158.2311 C.ar    1  UNL1        0.0077
     13 C         139.8419  140.3612  158.9241 C.ar    1  UNL1        0.0200
     14 C         141.4770  142.6809  161.6982 C.ar    1  UNL1        0.0352
     15 C         142.4191  143.7613  161.2562 C.ar    1  UNL1        0.0031
     16 C         143.4173  144.3274  162.2220 C.ar    1  UNL1        0.0003
     17 C         143.4736  143.8131  163.6300 C.ar    1  UNL1        0.0062
     18 C         142.5316  142.7327  164.0720 C.ar    1  UNL1        0.0736
     19 C         142.5879  142.2183  165.4799 C.ar    1  UNL1        0.2030
     20 O         143.5861  142.7844  166.4459 O.2     1  UNL1       -0.2863
     21 C         141.6460  141.1379  165.9219 C.ar    1  UNL1        0.0955
     22 C         140.6476  140.5717  164.9560 C.ar    1  UNL1        0.2024
     23 O         140.5914  141.0861  163.5480 O.2     1  UNL1       -0.4398
     24 C         141.5333  142.1665  163.1060 C.ar    1  UNL1        0.1498
     25 N         139.7057  139.4913  165.3980 N.pl3   1  UNL1       -0.2742
     26 C         138.7651  139.7374  166.5401 C.3     1  UNL1        0.1257
     27 C         137.8231  138.6570  166.9821 C.3     1  UNL1        0.1637
     28 O         137.8218  137.3305  166.2820 O.3     1  UNL1       -0.3501
     29 C         138.7624  137.0843  165.1397 C.3     1  UNL1        0.1637
     30 C         139.7044  138.1648  164.6977 C.3     1  UNL1        0.1257
     31 C         136.8739  141.2971  156.7843 C.2     1  UNL1        0.2425
     32 O         137.2619  142.7435  156.7002 O.2     1  UNL1       -0.2733
     33 N         137.4840  140.4166  157.8343 N.am    1  UNL1       -0.2828
     34 H         137.2293  139.4672  157.8895 H       1  UNL1        0.1549
     35 C         135.8756  140.7310  155.8184 C.3     1  UNL1        0.1588
     36 N         131.6154  140.0756  157.1114 N.3     1  UNL1       -0.2703
     37 C         131.9202  141.0117  155.9796 C.3     1  UNL1        0.0897
     38 C         133.3402  141.2302  155.5486 C.3     1  UNL1        0.0900
     39 N         134.4556  140.5126  156.2494 N.3     1  UNL1       -0.2626
     40 C         134.1509  139.5765  157.3812 C.3     1  UNL1        0.0900
     41 C         132.7308  139.3580  157.8122 C.3     1  UNL1        0.0897
     42 C         129.8577  138.7240  158.4653 C.3     1  UNL1        0.0188
     43 C         130.1954  139.8571  157.5424 C.3     1  UNL1        0.0722
@<TRIPOS>BOND
     1    42    43    1
     2    43    36    1
     3    36    37    1
     4    37    38    1
     5    38    39    1
     6    39    35    1
     7    35    31    1
     8    31    32    2
     9    31    33   am
    10    33     1    1
    11     1     2   ar
    12     2     3   ar
    13     3     4   ar
    14     4    14    1
    15    14    15   ar
    16    15    16   ar
    17    16    17   ar
    18    17    18   ar
    19    18    19   ar
    20    19    20    2
    21    19    21   ar
    22    21    22   ar
    23    22    25    1
    24    25    26    1
    25    26    27    1
    26    27    28    1
    27    28    29    1
    28    29    30    1
    29    22    23   ar
    30    23    24   ar
    31     4     5   ar
    32     5     6   ar
    33     6     7   ar
    34     7     8   ar
    35     8     9   ar
    36     9    10   ar
    37    10    11   ar
    38    11    12   ar
    39    12    13   ar
    40    39    40    1
    41    40    41    1
    42    41    36    1
    43    13     1   ar
    44    24    14   ar
    45    13     5   ar
    46    24    18   ar
    47    12     7   ar
    48    30    25    1
    49    33    34    1
@<TRIPOS>MOLECULE
*****
 43 49 0 0 0
SMALL
GASTEIGER

@<TRIPOS>ATOM
      1 C         139.3513  141.9892  162.4519 C.ar    1  UNL1        0.0508
      2 C         138.3687  141.9134  161.3211 C.ar    1  UNL1        0.0147
      3 C         138.6802  142.5743  160.0111 C.ar    1  UNL1        0.0019
      4 C         139.9745  143.3110  159.8319 C.ar    1  UNL1        0.0090
      5 C         140.9571  143.3869  160.9627 C.ar    1  UNL1        0.0307
      6 S         142.3037  144.0373  161.0804 S.2     1  UNL1       -0.0869
      7 C         142.8243  143.7783  162.4631 C.ar    1  UNL1        0.0295
      8 C         144.0991  144.1758  163.1464 C.ar    1  UNL1        0.0065
      9 C         144.3491  143.7628  164.5665 C.ar    1  UNL1        0.0005
     10 C         143.3243  142.9524  165.3034 C.ar    1  UNL1        0.0000
     11 C         142.0495  142.5549  164.6202 C.ar    1  UNL1        0.0006
     12 C         141.7995  142.9679  163.2000 C.ar    1  UNL1        0.0077
     13 C         140.6456  142.7260  162.2727 C.ar    1  UNL1        0.0200
     14 C         140.2860  143.9719  158.5219 C.ar    1  UNL1        0.0352
     15 C         140.1424  145.4582  158.3787 C.ar    1  UNL1        0.0031
     16 C         140.4539  146.1192  157.0688 C.ar    1  UNL1        0.0003
     17 C         140.9092  145.2939  155.9019 C.ar    1  UNL1        0.0062
     18 C         141.0528  143.8077  156.0450 C.ar    1  UNL1        0.0736
     19 C         141.5081  142.9823  154.8781 C.ar    1  UNL1        0.2030
     20 O         141.8196  143.6432  153.5681 O.2     1  UNL1       -0.2863
     21 C         141.6517  141.4961  155.0212 C.ar    1  UNL1        0.0955
     22 C         141.3402  140.8351  156.3313 C.ar    1  UNL1        0.2024
     23 O         140.8849  141.6605  157.4982 O.2     1  UNL1       -0.4398
     24 C         140.7413  143.1467  157.3551 C.ar    1  UNL1        0.1498
     25 N         141.4838  139.3489  156.4744 N.pl3   1  UNL1       -0.2742
     26 C         142.6141  138.7787  157.2788 C.3     1  UNL1        0.1257
     27 C         142.7578  137.2925  157.4219 C.3     1  UNL1        0.1637
     28 O         141.7712  136.3765  156.7606 O.3     1  UNL1       -0.3501
     29 C         140.6409  136.9467  155.9561 C.3     1  UNL1        0.1637
     30 C         140.4972  138.4329  155.8130 C.3     1  UNL1        0.1257
     31 C         139.2646  139.8549  163.9308 C.2     1  UNL1        0.2425
     32 O         139.8011  139.0424  162.7899 O.2     1  UNL1       -0.2733
     33 N         139.0397  141.3283  163.7620 N.am    1  UNL1       -0.2828
     34 H         138.6875  141.8615  164.5109 H       1  UNL1        0.1549
     35 C         138.9530  139.1940  165.2408 C.3     1  UNL1        0.1588
     36 N         141.4870  140.0608  168.8572 N.3     1  UNL1       -0.2703
     37 C         139.9916  140.0481  168.9747 C.3     1  UNL1        0.0897
     38 C         139.1470  139.7592  167.7693 C.3     1  UNL1        0.0900
     39 N         139.7977  139.4829  166.4463 N.3     1  UNL1       -0.2626
     40 C         141.2930  139.4956  166.3287 C.3     1  UNL1        0.0900
     41 C         142.1377  139.7845  167.5341 C.3     1  UNL1        0.0897
     42 C         143.3907  141.4101  169.9996 C.3     1  UNL1        0.0188
     43 C         142.3316  140.3497  170.0626 C.3     1  UNL1        0.0722
@<TRIPOS>BOND
     1    42    43    1
     2    43    36    1
     3    36    37    1
     4    37    38    1
     5    38    39    1
     6    39    35    1
     7    35    31    1
     8    31    32    2
     9    31    33   am
    10    33     1    1
    11     1     2   ar
    12     2     3   ar
    13     3     4   ar
    14     4    14    1
    15    14    15   ar
    16    15    16   ar
    17    16    17   ar
    18    17    18   ar
    19    18    19   ar
    20    19    20    2
    21    19    21   ar
    22    21    22   ar
    23    22    25    1
    24    25    26    1
    25    26    27    1
    26    27    28    1
    27    28    29    1
    28    29    30    1
    29    22    23   ar
    30    23    24   ar
    31     4     5   ar
    32     5     6   ar
    33     6     7   ar
    34     7     8   ar
    35     8     9   ar
    36     9    10   ar
    37    10    11   ar
    38    11    12   ar
    39    12    13   ar
    40    39    40    1
    41    40    41    1
    42    41    36    1
    43    13     1   ar
    44    24    14   ar
    45    13     5   ar
    46    24    18   ar
    47    12     7   ar
    48    30    25    1
    49    33    34    1
@<TRIPOS>MOLECULE
*****
 43 49 0 0 0
SMALL
GASTEIGER

@<TRIPOS>ATOM
      1 C         140.4202  140.4504  157.2618 C.ar    1  UNL1        0.0508
      2 C         139.0736  140.7050  157.8715 C.ar    1  UNL1        0.0147
      3 C         138.9084  141.7826  158.9018 C.ar    1  UNL1        0.0019
      4 C         140.0899  142.6054  159.3225 C.ar    1  UNL1        0.0090
      5 C         141.4365  142.3507  158.7128 C.ar    1  UNL1        0.0307
      6 S         142.7737  142.9957  158.9273 S.2     1  UNL1       -0.0869
      7 C         143.7652  142.3168  158.0296 C.ar    1  UNL1        0.0295
      8 C         145.2341  142.5304  157.8134 C.ar    1  UNL1        0.0065
      9 C         145.9786  141.6794  156.8277 C.ar    1  UNL1        0.0005
     10 C         145.2542  140.6149  156.0583 C.ar    1  UNL1        0.0000
     11 C         143.7854  140.4012  156.2746 C.ar    1  UNL1        0.0006
     12 C         143.0409  141.2522  157.2602 C.ar    1  UNL1        0.0077
     13 C         141.6017  141.2732  157.6824 C.ar    1  UNL1        0.0200
     14 C         139.9247  143.6830  160.3528 C.ar    1  UNL1        0.0352
     15 C         140.0632  145.1240  159.9599 C.ar    1  UNL1        0.0031
     16 C         139.8980  146.2016  160.9901 C.ar    1  UNL1        0.0003
     17 C         139.5944  145.8381  162.4135 C.ar    1  UNL1        0.0062
     18 C         139.4560  144.3972  162.8064 C.ar    1  UNL1        0.0736
     19 C         139.1524  144.0338  164.2297 C.ar    1  UNL1        0.2030
     20 O         138.9873  145.1113  165.2601 O.2     1  UNL1       -0.2863
     21 C         139.0140  142.5928  164.6227 C.ar    1  UNL1        0.0955
     22 C         139.1792  141.5152  163.5923 C.ar    1  UNL1        0.2024
     23 O         139.4827  141.8786  162.1690 O.2     1  UNL1       -0.4398
     24 C         139.6212  143.3196  161.7760 C.ar    1  UNL1        0.1498
     25 N         139.0407  140.0742  163.9853 N.pl3   1  UNL1       -0.2742
     26 C         138.5822  139.7144  165.3673 C.3     1  UNL1        0.1257
     27 C         138.4438  138.2735  165.7603 C.3     1  UNL1        0.1637
     28 O         138.7639  137.1923  164.7712 O.3     1  UNL1       -0.3501
     29 C         139.2225  137.5520  163.3891 C.3     1  UNL1        0.1637
     30 C         139.3609  138.9930  162.9961 C.3     1  UNL1        0.1257
     31 C         140.3292  137.9405  156.5964 C.2     1  UNL1        0.2425
     32 O         139.9080  137.5859  157.9916 O.2     1  UNL1       -0.2733
     33 N         140.5853  139.3728  156.2314 N.am    1  UNL1       -0.2828
     34 H         140.8618  139.6055  155.3156 H       1  UNL1        0.1549
     35 C         140.4943  136.8630  155.5660 C.3     1  UNL1        0.1588
     36 N         143.4440  133.5332  156.2455 N.3     1  UNL1       -0.2703
     37 C         143.6641  134.8722  156.8848 C.3     1  UNL1        0.0897
     38 C         142.6809  135.9821  156.6583 C.3     1  UNL1        0.0900
     39 N         141.4775  135.7531  155.7925 N.3     1  UNL1       -0.2626
     40 C         141.2574  134.4141  155.1532 C.3     1  UNL1        0.0900
     41 C         142.2406  133.3042  155.3797 C.3     1  UNL1        0.0897
     42 C         145.0837  132.2646  157.8113 C.3     1  UNL1        0.0188
     43 C         144.4272  132.4233  156.4720 C.3     1  UNL1        0.0722
@<TRIPOS>BOND
     1    42    43    1
     2    43    36    1
     3    36    37    1
     4    37    38    1
     5    38    39    1
     6    39    35    1
     7    35    31    1
     8    31    32    2
     9    31    33   am
    10    33     1    1
    11     1     2   ar
    12     2     3   ar
    13     3     4   ar
    14     4    14    1
    15    14    15   ar
    16    15    16   ar
    17    16    17   ar
    18    17    18   ar
    19    18    19   ar
    20    19    20    2
    21    19    21   ar
    22    21    22   ar
    23    22    25    1
    24    25    26    1
    25    26    27    1
    26    27    28    1
    27    28    29    1
    28    29    30    1
    29    22    23   ar
    30    23    24   ar
    31     4     5   ar
    32     5     6   ar
    33     6     7   ar
    34     7     8   ar
    35     8     9   ar
    36     9    10   ar
    37    10    11   ar
    38    11    12   ar
    39    12    13   ar
    40    39    40    1
    41    40    41    1
    42    41    36    1
    43    13     1   ar
    44    24    14   ar
    45    13     5   ar
    46    24    18   ar
    47    12     7   ar
    48    30    25    1
    49    33    34    1
@<TRIPOS>MOLECULE
*****
 43 49 0 0 0
SMALL
GASTEIGER

@<TRIPOS>ATOM
      1 C         140.8373  138.8615  161.7963 C.ar    1  UNL1        0.0508
      2 C         139.8817  138.4495  160.7160 C.ar    1  UNL1        0.0147
      3 C         140.0971  138.9152  159.3064 C.ar    1  UNL1        0.0019
      4 C         141.2682  139.7928  158.9772 C.ar    1  UNL1        0.0090
      5 C         142.2238  140.2048  160.0576 C.ar    1  UNL1        0.0307
      6 S         143.4581  141.0569  160.0345 S.2     1  UNL1       -0.0869
      7 C         144.0055  141.1178  161.4297 C.ar    1  UNL1        0.0295
      8 C         145.2040  141.8096  162.0083 C.ar    1  UNL1        0.0065
      9 C         145.5066  141.6870  163.4723 C.ar    1  UNL1        0.0005
     10 C         144.6106  140.8727  164.3577 C.ar    1  UNL1        0.0000
     11 C         143.4121  140.1808  163.7791 C.ar    1  UNL1        0.0006
     12 C         143.1095  140.3034  162.3151 C.ar    1  UNL1        0.0077
     13 C         142.0084  139.7392  161.4671 C.ar    1  UNL1        0.0200
     14 C         141.4836  140.2585  157.5677 C.ar    1  UNL1        0.0352
     15 C         141.3787  141.7175  157.2355 C.ar    1  UNL1        0.0031
     16 C         141.5941  142.1832  155.8261 C.ar    1  UNL1        0.0003
     17 C         141.9144  141.1899  154.7487 C.ar    1  UNL1        0.0062
     18 C         142.0192  139.7309  155.0808 C.ar    1  UNL1        0.0736
     19 C         142.3395  138.7376  154.0034 C.ar    1  UNL1        0.2030
     20 O         142.5549  139.2032  152.5939 O.2     1  UNL1       -0.2863
     21 C         142.4444  137.2786  154.3356 C.ar    1  UNL1        0.0955
     22 C         142.2290  136.8129  155.7452 C.ar    1  UNL1        0.2024
     23 O         141.9087  137.8062  156.8225 O.2     1  UNL1       -0.4398
     24 C         141.8038  139.2652  156.4904 C.ar    1  UNL1        0.1498
     25 N         142.3339  135.3539  156.0773 N.pl3   1  UNL1       -0.2742
     26 C         143.2408  134.8995  157.1822 C.3     1  UNL1        0.1257
     27 C         143.3457  133.4406  157.5143 C.3     1  UNL1        0.1637
     28 O         142.5436  132.4359  156.7416 O.3     1  UNL1       -0.3501
     29 C         141.6366  132.8902  155.6366 C.3     1  UNL1        0.1637
     30 C         141.5317  134.3492  155.3045 C.3     1  UNL1        0.1257
     31 C         139.9647  139.3032  164.2033 C.2     1  UNL1        0.2425
     32 O         139.5231  140.6762  163.7913 O.2     1  UNL1       -0.2733
     33 N         140.6219  138.3958  163.2059 N.am    1  UNL1       -0.2828
     34 H         140.9117  137.4947  163.4763 H       1  UNL1        0.1549
     35 C         139.7493  138.8375  165.6128 C.3     1  UNL1        0.1588
     36 N         141.8622  140.8969  169.0106 N.3     1  UNL1       -0.2703
     37 C         142.6420  140.0629  168.0378 C.3     1  UNL1        0.0897
     38 C         141.9378  139.3764  166.9053 C.3     1  UNL1        0.0900
     39 N         140.4536  139.5240  166.7454 N.3     1  UNL1       -0.2626
     40 C         139.6737  140.3580  167.7181 C.3     1  UNL1        0.0900
     41 C         140.3780  141.0445  168.8507 C.3     1  UNL1        0.0897
     42 C         143.8093  142.3809  169.8802 C.3     1  UNL1        0.0188
     43 C         142.5664  141.5834  170.1432 C.3     1  UNL1        0.0722
@<TRIPOS>BOND
     1    42    43    1
     2    43    36    1
     3    36    37    1
     4    37    38    1
     5    38    39    1
     6    39    35    1
     7    35    31    1
     8    31    32    2
     9    31    33   am
    10    33     1    1
    11     1     2   ar
    12     2     3   ar
    13     3     4   ar
    14     4    14    1
    15    14    15   ar
    16    15    16   ar
    17    16    17   ar
    18    17    18   ar
    19    18    19   ar
    20    19    20    2
    21    19    21   ar
    22    21    22   ar
    23    22    25    1
    24    25    26    1
    25    26    27    1
    26    27    28    1
    27    28    29    1
    28    29    30    1
    29    22    23   ar
    30    23    24   ar
    31     4     5   ar
    32     5     6   ar
    33     6     7   ar
    34     7     8   ar
    35     8     9   ar
    36     9    10   ar
    37    10    11   ar
    38    11    12   ar
    39    12    13   ar
    40    39    40    1
    41    40    41    1
    42    41    36    1
    43    13     1   ar
    44    24    14   ar
    45    13     5   ar
    46    24    18   ar
    47    12     7   ar
    48    30    25    1
    49    33    34    1
@<TRIPOS>MOLECULE
*****
 43 49 0 0 0
SMALL
GASTEIGER

@<TRIPOS>ATOM
      1 C         140.6932  138.0711  157.0506 C.ar    1  UNL1        0.0508
      2 C         141.6691  138.5680  158.0757 C.ar    1  UNL1        0.0147
      3 C         141.5990  139.9890  158.5511 C.ar    1  UNL1        0.0019
      4 C         140.5530  140.9130  158.0014 C.ar    1  UNL1        0.0090
      5 C         139.5771  140.4160  156.9763 C.ar    1  UNL1        0.0307
      6 S         138.4453  141.0896  156.2585 S.2     1  UNL1       -0.0869
      7 C         137.8159  140.0850  155.3395 C.ar    1  UNL1        0.0295
      8 C         136.6624  140.1817  154.3856 C.ar    1  UNL1        0.0065
      9 C         136.2517  138.9839  153.5815 C.ar    1  UNL1        0.0005
     10 C         136.9945  137.6894  153.7313 C.ar    1  UNL1        0.0000
     11 C         138.1481  137.5927  154.6852 C.ar    1  UNL1        0.0006
     12 C         138.5588  138.7905  155.4893 C.ar    1  UNL1        0.0077
     13 C         139.6473  138.9951  156.5009 C.ar    1  UNL1        0.0200
     14 C         140.4829  142.3339  158.4768 C.ar    1  UNL1        0.0352
     15 C         140.8005  143.4567  157.5341 C.ar    1  UNL1        0.0031
     16 C         140.7304  144.8776  158.0095 C.ar    1  UNL1        0.0003
     17 C         140.3427  145.1758  159.4275 C.ar    1  UNL1        0.0062
     18 C         140.0251  144.0531  160.3701 C.ar    1  UNL1        0.0736
     19 C         139.6373  144.3513  161.7881 C.ar    1  UNL1        0.2030
     20 O         139.5672  145.7722  162.2635 O.2     1  UNL1       -0.2863
     21 C         139.3197  143.2286  162.7307 C.ar    1  UNL1        0.0955
     22 C         139.3898  141.8075  162.2553 C.ar    1  UNL1        0.2024
     23 O         139.7775  141.5093  160.8373 O.2     1  UNL1       -0.4398
     24 C         140.0952  142.6321  159.8947 C.ar    1  UNL1        0.1498
     25 N         139.0721  140.6848  163.1980 N.pl3   1  UNL1       -0.2742
     26 C         139.3178  139.2646  162.7827 C.3     1  UNL1        0.1257
     27 C         139.0002  138.1419  163.7253 C.3     1  UNL1        0.1637
     28 O         138.4369  138.4393  165.0832 O.3     1  UNL1       -0.3501
     29 C         138.1911  139.8596  165.4986 C.3     1  UNL1        0.1637
     30 C         138.5088  140.9823  164.5560 C.3     1  UNL1        0.1257
     31 C         141.5786  136.3037  155.3646 C.2     1  UNL1        0.2425
     32 O         142.3236  137.3780  154.6294 O.2     1  UNL1       -0.2733
     33 N         140.7634  136.6501  156.5752 N.am    1  UNL1       -0.2828
     34 H         140.2744  135.9449  157.0577 H       1  UNL1        0.1549
     35 C         141.6487  134.8827  154.8893 C.3     1  UNL1        0.1588
     36 N         143.9427  131.8261  157.2652 N.3     1  UNL1       -0.2703
     37 C         144.3739  133.2628  157.2767 C.3     1  UNL1        0.0897
     38 C         143.6092  134.2816  156.4847 C.3     1  UNL1        0.0900
     39 N         142.4134  133.8638  155.6812 N.3     1  UNL1       -0.2626
     40 C         141.9822  132.4272  155.6697 C.3     1  UNL1        0.0900
     41 C         142.7469  131.4083  156.4617 C.3     1  UNL1        0.0897
     42 C         144.1150  129.4518  158.3058 C.3     1  UNL1        0.0188
     43 C         144.7074  130.8072  158.0571 C.3     1  UNL1        0.0722
@<TRIPOS>BOND
     1    42    43    1
     2    43    36    1
     3    36    37    1
     4    37    38    1
     5    38    39    1
     6    39    35    1
     7    35    31    1
     8    31    32    2
     9    31    33   am
    10    33     1    1
    11     1     2   ar
    12     2     3   ar
    13     3     4   ar
    14     4    14    1
    15    14    15   ar
    16    15    16   ar
    17    16    17   ar
    18    17    18   ar
    19    18    19   ar
    20    19    20    2
    21    19    21   ar
    22    21    22   ar
    23    22    25    1
    24    25    26    1
    25    26    27    1
    26    27    28    1
    27    28    29    1
    28    29    30    1
    29    22    23   ar
    30    23    24   ar
    31     4     5   ar
    32     5     6   ar
    33     6     7   ar
    34     7     8   ar
    35     8     9   ar
    36     9    10   ar
    37    10    11   ar
    38    11    12   ar
    39    12    13   ar
    40    39    40    1
    41    40    41    1
    42    41    36    1
    43    13     1   ar
    44    24    14   ar
    45    13     5   ar
    46    24    18   ar
    47    12     7   ar
    48    30    25    1
    49    33    34    1
