@<TRIPOS>MOLECULE
*****
 32 36 0 0 0
SMALL
GASTEIGER

@<TRIPOS>ATOM
      1 C         141.4989  142.7568  165.1616 C.ar    1  UNL1        0.0906
      2 C         140.4174  142.9197  166.1881 C.ar    1  UNL1        0.1496
      3 O         139.4167  143.9017  165.6552 O.2     1  UNL1       -0.4534
      4 C         139.8797  144.3459  164.2993 C.ar    1  UNL1        0.1454
      5 C         139.2957  145.3032  163.3031 C.ar    1  UNL1        0.0406
      6 C         139.9987  145.5529  162.0018 C.ar    1  UNL1        0.0395
      7 C         141.2856  144.8453  161.6967 C.ar    1  UNL1        0.1311
      8 O         141.9886  145.0950  160.3954 O.3     1  UNL1       -0.5058
      9 C         141.8696  143.8880  162.6930 C.ar    1  UNL1        0.0308
     10 C         141.1666  143.6383  163.9943 C.ar    1  UNL1        0.0421
     11 H         141.6238  145.6930  159.7730 H       1  UNL1        0.2922
     12 C         140.3487  142.2228  167.5146 C.ar    1  UNL1        0.0349
     13 C         140.0095  140.7631  167.5783 C.ar    1  UNL1        0.0061
     14 C         139.9407  140.0662  168.9048 C.ar    1  UNL1        0.0367
     15 C         140.2113  140.8290  170.1677 C.ar    1  UNL1        0.1337
     16 O         140.1426  140.1322  171.4942 O.3     1  UNL1       -0.5055
     17 C         140.5505  142.2887  170.1040 C.ar    1  UNL1        0.0367
     18 C         140.6192  142.9856  168.7775 C.ar    1  UNL1        0.0061
     19 H         139.9306  139.2203  171.5339 H       1  UNL1        0.2922
     20 C         143.8069  139.5311  165.0260 C.3     1  UNL1        0.1109
     21 N         142.6041  140.4194  164.9062 N.am    1  UNL1       -0.2991
     22 C         142.7017  141.8685  165.2814 C.2     1  UNL1        0.2490
     23 O         144.0019  142.4292  165.7762 O.2     1  UNL1       -0.2700
     24 H         141.7507  140.0513  164.5814 H       1  UNL1        0.1498
     25 C         143.1565  143.1804  162.3879 C.3     1  UNL1        0.1023
     26 N         143.1338  141.7750  161.8640 N.3     1  UNL1       -0.2685
     27 C         144.1735  140.7313  161.5820 C.3     1  UNL1        0.0785
     28 C         143.1017  139.7875  161.1231 C.3     1  UNL1        0.0840
     29 C         144.1415  138.7438  160.8411 C.3     1  UNL1        0.1471
     30 O         143.0697  137.8001  160.3822 O.3     1  UNL1       -0.3534
     31 C         142.0300  138.8439  160.6642 C.3     1  UNL1        0.1471
     32 C         142.0620  140.8313  161.4051 C.3     1  UNL1        0.0785
@<TRIPOS>BOND
     1    20    21    1
     2    21    22   am
     3    22    23    2
     4    22     1    1
     5     1     2   ar
     6     2    12    1
     7    12    13   ar
     8    13    14   ar
     9    14    15   ar
    10    15    16    1
    11    15    17   ar
    12    17    18   ar
    13     2     3   ar
    14     3     4   ar
    15     4     5   ar
    16     5     6   ar
    17     6     7   ar
    18     7     8    1
    19     7     9   ar
    20     9    25    1
    21    25    26    1
    22    26    27    1
    23    27    28    1
    24    28    29    1
    25    29    30    1
    26    30    31    1
    27    28    32    1
    28     9    10   ar
    29    10     1   ar
    30    18    12   ar
    31    10     4   ar
    32    32    26    1
    33    31    28    1
    34    21    24    1
    35    16    19    1
    36     8    11    1
@<TRIPOS>MOLECULE
*****
 32 36 0 0 0
SMALL
GASTEIGER

@<TRIPOS>ATOM
      1 C         142.3351  142.9150  165.2341 C.ar    1  UNL1        0.0906
      2 C         141.5494  142.6040  166.4734 C.ar    1  UNL1        0.1496
      3 O         140.1841  143.2058  166.3197 O.2     1  UNL1       -0.4534
      4 C         140.1260  143.8888  164.9855 C.ar    1  UNL1        0.1454
      5 C         139.0343  144.6512  164.2949 C.ar    1  UNL1        0.0406
      6 C         139.2721  145.2338  162.9333 C.ar    1  UNL1        0.0395
      7 C         140.6016  145.0540  162.2623 C.ar    1  UNL1        0.1311
      8 O         140.8393  145.6367  160.9006 O.3     1  UNL1       -0.5058
      9 C         141.6933  144.2917  162.9529 C.ar    1  UNL1        0.0308
     10 C         141.4555  143.7091  164.3145 C.ar    1  UNL1        0.0421
     11 H         140.1574  146.1129  160.4692 H       1  UNL1        0.2922
     12 C         142.0424  141.8274  167.6583 C.ar    1  UNL1        0.0349
     13 C         142.9537  142.4791  168.6556 C.ar    1  UNL1        0.0061
     14 C         143.4467  141.7025  169.8405 C.ar    1  UNL1        0.0367
     15 C         143.0284  140.2743  170.0280 C.ar    1  UNL1        0.1337
     16 O         143.5214  139.4978  171.2129 O.3     1  UNL1       -0.5055
     17 C         142.1171  139.6227  169.0307 C.ar    1  UNL1        0.0367
     18 C         141.6241  140.3992  167.8458 C.ar    1  UNL1        0.0061
     19 H         144.0907  139.9049  171.8359 H       1  UNL1        0.2922
     20 C         145.4518  140.8071  163.9716 C.3     1  UNL1        0.1109
     21 N         144.0351  141.2180  164.2436 N.am    1  UNL1       -0.2991
     22 C         143.7519  142.5041  164.9621 C.2     1  UNL1        0.2490
     23 O         144.8855  143.3790  165.4084 O.2     1  UNL1       -0.2700
     24 H         143.2911  140.6437  163.9507 H       1  UNL1        0.1498
     25 C         143.0227  144.1119  162.2820 C.3     1  UNL1        0.1023
     26 N         143.2367  142.9679  161.3357 N.3     1  UNL1       -0.2685
     27 C         144.0632  142.7516  160.1028 C.3     1  UNL1        0.0785
     28 C         143.5393  141.3499  159.9974 C.3     1  UNL1        0.0840
     29 C         144.3658  141.1337  158.7645 C.3     1  UNL1        0.1471
     30 O         143.8420  139.7321  158.6592 O.3     1  UNL1       -0.3534
     31 C         143.0155  139.9484  159.8922 C.3     1  UNL1        0.1471
     32 C         142.7129  141.5662  161.2304 C.3     1  UNL1        0.0785
@<TRIPOS>BOND
     1    20    21    1
     2    21    22   am
     3    22    23    2
     4    22     1    1
     5     1     2   ar
     6     2    12    1
     7    12    13   ar
     8    13    14   ar
     9    14    15   ar
    10    15    16    1
    11    15    17   ar
    12    17    18   ar
    13     2     3   ar
    14     3     4   ar
    15     4     5   ar
    16     5     6   ar
    17     6     7   ar
    18     7     8    1
    19     7     9   ar
    20     9    25    1
    21    25    26    1
    22    26    27    1
    23    27    28    1
    24    28    29    1
    25    29    30    1
    26    30    31    1
    27    28    32    1
    28     9    10   ar
    29    10     1   ar
    30    18    12   ar
    31    10     4   ar
    32    32    26    1
    33    31    28    1
    34    21    24    1
    35    16    19    1
    36     8    11    1
@<TRIPOS>MOLECULE
*****
 32 36 0 0 0
SMALL
GASTEIGER

@<TRIPOS>ATOM
      1 C         140.2435  141.2478  165.7129 C.ar    1  UNL1        0.0906
      2 C         140.6540  141.9734  166.9598 C.ar    1  UNL1        0.1496
      3 O         140.1453  143.3814  166.8654 O.2     1  UNL1       -0.4534
      4 C         139.4204  143.5259  165.5602 C.ar    1  UNL1        0.1454
      5 C         138.7130  144.6878  164.9282 C.ar    1  UNL1        0.0406
      6 C         138.0662  144.5310  163.5840 C.ar    1  UNL1        0.0395
      7 C         138.1268  143.2123  162.8717 C.ar    1  UNL1        0.1311
      8 O         137.4800  143.0556  161.5274 O.3     1  UNL1       -0.5058
      9 C         138.8343  142.0504  163.5036 C.ar    1  UNL1        0.0308
     10 C         139.4811  142.2072  164.8479 C.ar    1  UNL1        0.0421
     11 H         137.0381  143.7814  161.1326 H       1  UNL1        0.2922
     12 C         141.4359  141.3931  168.1008 C.ar    1  UNL1        0.0349
     13 C         141.0143  140.0903  168.7130 C.ar    1  UNL1        0.0061
     14 C         141.7962  139.5099  169.8540 C.ar    1  UNL1        0.0367
     15 C         142.9997  140.2324  170.3828 C.ar    1  UNL1        0.1337
     16 O         143.7816  139.6521  171.5237 O.3     1  UNL1       -0.5055
     17 C         143.4213  141.5352  169.7705 C.ar    1  UNL1        0.0367
     18 C         142.6394  142.1156  168.6296 C.ar    1  UNL1        0.0061
     19 H         143.5182  138.8382  171.9062 H       1  UNL1        0.2922
     20 C         142.1653  138.0083  164.4626 C.3     1  UNL1        0.1109
     21 N         141.8660  139.4418  164.7875 N.am    1  UNL1       -0.2991
     22 C         140.5428  139.8143  165.3880 C.2     1  UNL1        0.2490
     23 O         139.5190  138.7532  165.6636 O.2     1  UNL1       -0.2700
     24 H         142.5379  140.1382  164.6065 H       1  UNL1        0.1498
     25 C         138.8950  140.7317  162.7913 C.3     1  UNL1        0.1023
     26 N         140.1317  140.3431  162.0367 N.3     1  UNL1       -0.2685
     27 C         141.4016  141.0415  161.6499 C.3     1  UNL1        0.0785
     28 C         141.8808  139.7934  160.9696 C.3     1  UNL1        0.0840
     29 C         143.1506  140.4919  160.5828 C.3     1  UNL1        0.1471
     30 O         143.6298  139.2439  159.9025 O.3     1  UNL1       -0.3534
     31 C         142.3599  138.5455  160.2893 C.3     1  UNL1        0.1471
     32 C         140.6109  139.0951  161.3564 C.3     1  UNL1        0.0785
@<TRIPOS>BOND
     1    20    21    1
     2    21    22   am
     3    22    23    2
     4    22     1    1
     5     1     2   ar
     6     2    12    1
     7    12    13   ar
     8    13    14   ar
     9    14    15   ar
    10    15    16    1
    11    15    17   ar
    12    17    18   ar
    13     2     3   ar
    14     3     4   ar
    15     4     5   ar
    16     5     6   ar
    17     6     7   ar
    18     7     8    1
    19     7     9   ar
    20     9    25    1
    21    25    26    1
    22    26    27    1
    23    27    28    1
    24    28    29    1
    25    29    30    1
    26    30    31    1
    27    28    32    1
    28     9    10   ar
    29    10     1   ar
    30    18    12   ar
    31    10     4   ar
    32    32    26    1
    33    31    28    1
    34    21    24    1
    35    16    19    1
    36     8    11    1
@<TRIPOS>MOLECULE
*****
 32 36 0 0 0
SMALL
GASTEIGER

@<TRIPOS>ATOM
      1 C         140.1609  141.5552  165.4194 C.ar    1  UNL1        0.0906
      2 C         140.6878  140.9460  166.6848 C.ar    1  UNL1        0.1496
      3 O         140.4586  139.4652  166.6168 O.2     1  UNL1       -0.4534
      4 C         139.7900  139.1592  165.3093 C.ar    1  UNL1        0.1454
      5 C         139.3250  137.8713  164.6970 C.ar    1  UNL1        0.0406
      6 C         138.6760  137.8751  163.3447 C.ar    1  UNL1        0.0395
      7 C         138.4920  139.1668  162.6047 C.ar    1  UNL1        0.1311
      8 O         137.8430  139.1705  161.2524 O.3     1  UNL1       -0.5058
      9 C         138.9570  140.4547  163.2170 C.ar    1  UNL1        0.0308
     10 C         139.6060  140.4509  164.5693 C.ar    1  UNL1        0.0421
     11 H         137.5525  138.3660  160.8699 H       1  UNL1        0.2922
     12 C         141.3310  141.6874  167.8191 C.ar    1  UNL1        0.0349
     13 C         140.5065  142.5898  168.6886 C.ar    1  UNL1        0.0061
     14 C         141.1497  143.3312  169.8229 C.ar    1  UNL1        0.0367
     15 C         142.6173  143.1703  170.0877 C.ar    1  UNL1        0.1337
     16 O         143.2605  143.9117  171.2220 O.3     1  UNL1       -0.5055
     17 C         143.4418  142.2680  169.2182 C.ar    1  UNL1        0.0367
     18 C         142.7986  141.5265  168.0839 C.ar    1  UNL1        0.0061
     19 H         142.7455  144.4754  171.7652 H       1  UNL1        0.2922
     20 C         141.3721  145.0401  163.9569 C.3     1  UNL1        0.1109
     21 N         141.3484  143.5825  164.3102 N.am    1  UNL1       -0.2991
     22 C         140.1846  143.0128  165.0662 C.2     1  UNL1        0.2490
     23 O         139.0448  143.9008  165.4687 O.2     1  UNL1       -0.2700
     24 H         142.0965  142.9997  164.0459 H       1  UNL1        0.1498
     25 C         138.7730  141.7465  162.4770 C.3     1  UNL1        0.1023
     26 N         139.8878  142.2946  161.6363 N.3     1  UNL1       -0.2685
     27 C         140.1029  143.5537  160.8500 C.3     1  UNL1        0.0785
     28 C         141.4644  143.0698  160.4473 C.3     1  UNL1        0.0840
     29 C         141.6794  144.3289  159.6610 C.3     1  UNL1        0.1471
     30 O         143.0409  143.8449  159.2583 O.3     1  UNL1       -0.3534
     31 C         142.8258  142.5858  160.0446 C.3     1  UNL1        0.1471
     32 C         141.2493  141.8106  161.2336 C.3     1  UNL1        0.0785
@<TRIPOS>BOND
     1    20    21    1
     2    21    22   am
     3    22    23    2
     4    22     1    1
     5     1     2   ar
     6     2    12    1
     7    12    13   ar
     8    13    14   ar
     9    14    15   ar
    10    15    16    1
    11    15    17   ar
    12    17    18   ar
    13     2     3   ar
    14     3     4   ar
    15     4     5   ar
    16     5     6   ar
    17     6     7   ar
    18     7     8    1
    19     7     9   ar
    20     9    25    1
    21    25    26    1
    22    26    27    1
    23    27    28    1
    24    28    29    1
    25    29    30    1
    26    30    31    1
    27    28    32    1
    28     9    10   ar
    29    10     1   ar
    30    18    12   ar
    31    10     4   ar
    32    32    26    1
    33    31    28    1
    34    21    24    1
    35    16    19    1
    36     8    11    1
@<TRIPOS>MOLECULE
*****
 32 36 0 0 0
SMALL
GASTEIGER

@<TRIPOS>ATOM
      1 C         141.4367  140.8585  165.4181 C.ar    1  UNL1        0.0906
      2 C         141.0897  140.6755  166.8659 C.ar    1  UNL1        0.1496
      3 O         140.1063  139.5475  166.9678 O.2     1  UNL1       -0.4534
      4 C         139.8455  139.0332  165.5831 C.ar    1  UNL1        0.1454
      5 C         138.9656  137.9319  165.0705 C.ar    1  UNL1        0.0406
      6 C         138.9079  137.6408  163.6002 C.ar    1  UNL1        0.0395
      7 C         139.7302  138.4511  162.6424 C.ar    1  UNL1        0.1311
      8 O         139.6725  138.1600  161.1720 O.3     1  UNL1       -0.5058
      9 C         140.6101  139.5524  163.1550 C.ar    1  UNL1        0.0308
     10 C         140.6678  139.8435  164.6253 C.ar    1  UNL1        0.0421
     11 H         139.1228  137.4720  160.8518 H       1  UNL1        0.2922
     12 C         141.6310  141.4795  168.0108 C.ar    1  UNL1        0.0349
     13 C         140.7956  142.5611  168.6288 C.ar    1  UNL1        0.0061
     14 C         141.3370  143.3651  169.7737 C.ar    1  UNL1        0.0367
     15 C         142.7137  143.0873  170.3004 C.ar    1  UNL1        0.1337
     16 O         143.2550  143.8913  171.4453 O.3     1  UNL1       -0.5055
     17 C         143.5490  142.0056  169.6824 C.ar    1  UNL1        0.0367
     18 C         143.0077  141.2017  168.5375 C.ar    1  UNL1        0.0061
     19 H         142.7331  144.5670  171.8314 H       1  UNL1        0.2922
     20 C         142.8926  144.3196  164.1330 C.3     1  UNL1        0.1109
     21 N         141.9433  143.3005  164.6902 N.am    1  UNL1       -0.2991
     22 C         142.3860  141.8775  164.8610 C.2     1  UNL1        0.2490
     23 O         143.7779  141.4736  164.4746 O.2     1  UNL1       -0.2700
     24 H         141.0297  143.5657  164.9437 H       1  UNL1        0.1498
     25 C         141.4324  140.3627  162.1972 C.3     1  UNL1        0.1023
     26 N         141.0125  141.7584  161.8428 N.3     1  UNL1       -0.2685
     27 C         139.8394  142.6307  162.1789 C.3     1  UNL1        0.0785
     28 C         140.4186  143.7324  161.3417 C.3     1  UNL1        0.0840
     29 C         139.2455  144.6045  161.6778 C.3     1  UNL1        0.1471
     30 O         139.8247  145.7062  160.8406 O.3     1  UNL1       -0.3534
     31 C         140.9978  144.8339  160.5046 C.3     1  UNL1        0.1471
     32 C         141.5917  142.8601  161.0056 C.3     1  UNL1        0.0785
@<TRIPOS>BOND
     1    20    21    1
     2    21    22   am
     3    22    23    2
     4    22     1    1
     5     1     2   ar
     6     2    12    1
     7    12    13   ar
     8    13    14   ar
     9    14    15   ar
    10    15    16    1
    11    15    17   ar
    12    17    18   ar
    13     2     3   ar
    14     3     4   ar
    15     4     5   ar
    16     5     6   ar
    17     6     7   ar
    18     7     8    1
    19     7     9   ar
    20     9    25    1
    21    25    26    1
    22    26    27    1
    23    27    28    1
    24    28    29    1
    25    29    30    1
    26    30    31    1
    27    28    32    1
    28     9    10   ar
    29    10     1   ar
    30    18    12   ar
    31    10     4   ar
    32    32    26    1
    33    31    28    1
    34    21    24    1
    35    16    19    1
    36     8    11    1
@<TRIPOS>MOLECULE
*****
 32 36 0 0 0
SMALL
GASTEIGER

@<TRIPOS>ATOM
      1 C         141.5387  142.0547  165.3453 C.ar    1  UNL1        0.0906
      2 C         141.1918  142.2689  166.7889 C.ar    1  UNL1        0.1496
      3 O         140.0683  143.2607  166.8533 O.2     1  UNL1       -0.4534
      4 C         139.7209  143.6595  165.4496 C.ar    1  UNL1        0.1454
      5 C         138.6945  144.6050  164.8998 C.ar    1  UNL1        0.0406
      6 C         138.5769  144.8052  163.4179 C.ar    1  UNL1        0.0395
      7 C         139.4856  144.0599  162.4859 C.ar    1  UNL1        0.1311
      8 O         139.3680  144.2601  161.0039 O.3     1  UNL1       -0.5058
      9 C         140.5120  143.1143  163.0358 C.ar    1  UNL1        0.0308
     10 C         140.6297  142.9142  164.5176 C.ar    1  UNL1        0.0421
     11 H         138.7268  144.8508  160.6604 H       1  UNL1        0.2922
     12 C         141.8523  141.6074  167.9619 C.ar    1  UNL1        0.0349
     13 C         142.8798  142.3516  168.7621 C.ar    1  UNL1        0.0061
     14 C         143.5403  141.6901  169.9352 C.ar    1  UNL1        0.0367
     15 C         143.1733  140.2844  170.3081 C.ar    1  UNL1        0.1337
     16 O         143.8339  139.6229  171.4812 O.3     1  UNL1       -0.5055
     17 C         142.1458  139.5401  169.5080 C.ar    1  UNL1        0.0367
     18 C         141.4853  140.2016  168.3349 C.ar    1  UNL1        0.0061
     19 H         144.4757  140.0878  171.9810 H       1  UNL1        0.2922
     20 C         145.0683  140.7450  164.0896 C.3     1  UNL1        0.1109
     21 N         143.9999  141.6582  164.6135 N.am    1  UNL1       -0.2991
     22 C         142.6071  141.1414  164.8214 C.2     1  UNL1        0.2490
     23 O         142.2828  139.7115  164.5055 O.2     1  UNL1       -0.2700
     24 H         144.2128  142.5968  164.8208 H       1  UNL1        0.1498
     25 C         141.4208  142.3690  162.1038 C.3     1  UNL1        0.1023
     26 N         140.8465  141.4099  161.1037 N.3     1  UNL1       -0.2685
     27 C         140.1335  140.0927  161.1856 C.3     1  UNL1        0.0785
     28 C         140.0342  140.0534  159.6893 C.3     1  UNL1        0.0840
     29 C         139.3213  138.7362  159.7713 C.3     1  UNL1        0.1471
     30 O         139.2219  138.6969  158.2751 O.3     1  UNL1       -0.3534
     31 C         139.9349  140.0141  158.1932 C.3     1  UNL1        0.1471
     32 C         140.7471  141.3706  159.6075 C.3     1  UNL1        0.0785
@<TRIPOS>BOND
     1    20    21    1
     2    21    22   am
     3    22    23    2
     4    22     1    1
     5     1     2   ar
     6     2    12    1
     7    12    13   ar
     8    13    14   ar
     9    14    15   ar
    10    15    16    1
    11    15    17   ar
    12    17    18   ar
    13     2     3   ar
    14     3     4   ar
    15     4     5   ar
    16     5     6   ar
    17     6     7   ar
    18     7     8    1
    19     7     9   ar
    20     9    25    1
    21    25    26    1
    22    26    27    1
    23    27    28    1
    24    28    29    1
    25    29    30    1
    26    30    31    1
    27    28    32    1
    28     9    10   ar
    29    10     1   ar
    30    18    12   ar
    31    10     4   ar
    32    32    26    1
    33    31    28    1
    34    21    24    1
    35    16    19    1
    36     8    11    1
@<TRIPOS>MOLECULE
*****
 32 36 0 0 0
SMALL
GASTEIGER

@<TRIPOS>ATOM
      1 C         141.5685  140.6969  165.5797 C.ar    1  UNL1        0.0906
      2 C         141.1356  140.6679  167.0155 C.ar    1  UNL1        0.1496
      3 O         140.0588  139.6330  167.1541 O.2     1  UNL1       -0.4534
      4 C         139.8261  139.0224  165.8040 C.ar    1  UNL1        0.1454
      5 C         138.8851  137.9526  165.3349 C.ar    1  UNL1        0.0406
      6 C         138.8772  137.5404  163.8927 C.ar    1  UNL1        0.0395
      7 C         139.8103  138.1979  162.9196 C.ar    1  UNL1        0.1311
      8 O         139.8024  137.7856  161.4773 O.3     1  UNL1       -0.5058
      9 C         140.7513  139.2677  163.3887 C.ar    1  UNL1        0.0308
     10 C         140.7592  139.6800  164.8308 C.ar    1  UNL1        0.0421
     11 H         139.2146  137.1174  161.1843 H       1  UNL1        0.2922
     12 C         141.6835  141.5236  168.1190 C.ar    1  UNL1        0.0349
     13 C         143.1075  141.3578  168.5602 C.ar    1  UNL1        0.0061
     14 C         143.6553  142.2135  169.6637 C.ar    1  UNL1        0.0367
     15 C         142.7791  143.2350  170.3260 C.ar    1  UNL1        0.1337
     16 O         143.3269  144.0906  171.4296 O.3     1  UNL1       -0.5055
     17 C         141.3551  143.4008  169.8849 C.ar    1  UNL1        0.0367
     18 C         140.8073  142.5451  168.7814 C.ar    1  UNL1        0.0061
     19 H         144.2165  143.9870  171.7051 H       1  UNL1        0.2922
     20 C         145.0455  141.9264  164.1136 C.3     1  UNL1        0.1109
     21 N         143.9888  141.0366  164.6981 N.am    1  UNL1       -0.2991
     22 C         142.6252  141.5867  164.9951 C.2     1  UNL1        0.2490
     23 O         142.3185  143.0265  164.7076 O.2     1  UNL1       -0.2700
     24 H         144.1902  140.0916  164.8868 H       1  UNL1        0.1498
     25 C         141.6844  139.9253  162.4155 C.3     1  UNL1        0.1023
     26 N         141.3838  141.3020  161.9015 N.3     1  UNL1       -0.2685
     27 C         142.1605  142.3516  161.1633 C.3     1  UNL1        0.0785
     28 C         140.9586  143.2490  161.1744 C.3     1  UNL1        0.0840
     29 C         141.7354  144.2985  160.4362 C.3     1  UNL1        0.1471
     30 O         140.5335  145.1959  160.4473 O.3     1  UNL1       -0.3534
     31 C         139.7567  144.1463  161.1855 C.3     1  UNL1        0.1471
     32 C         140.1818  142.1994  161.9125 C.3     1  UNL1        0.0785
@<TRIPOS>BOND
     1    20    21    1
     2    21    22   am
     3    22    23    2
     4    22     1    1
     5     1     2   ar
     6     2    12    1
     7    12    13   ar
     8    13    14   ar
     9    14    15   ar
    10    15    16    1
    11    15    17   ar
    12    17    18   ar
    13     2     3   ar
    14     3     4   ar
    15     4     5   ar
    16     5     6   ar
    17     6     7   ar
    18     7     8    1
    19     7     9   ar
    20     9    25    1
    21    25    26    1
    22    26    27    1
    23    27    28    1
    24    28    29    1
    25    29    30    1
    26    30    31    1
    27    28    32    1
    28     9    10   ar
    29    10     1   ar
    30    18    12   ar
    31    10     4   ar
    32    32    26    1
    33    31    28    1
    34    21    24    1
    35    16    19    1
    36     8    11    1
@<TRIPOS>MOLECULE
*****
 32 36 0 0 0
SMALL
GASTEIGER

@<TRIPOS>ATOM
      1 C         141.0458  142.3513  165.3746 C.ar    1  UNL1        0.0906
      2 C         141.8153  142.1781  166.6505 C.ar    1  UNL1        0.1496
      3 O         143.1539  142.8323  166.4769 O.2     1  UNL1       -0.4534
      4 C         143.2118  143.4098  165.0937 C.ar    1  UNL1        0.1454
      5 C         144.2825  144.1679  164.3666 C.ar    1  UNL1        0.0406
      6 C         144.0504  144.6288  162.9582 C.ar    1  UNL1        0.0395
      7 C         142.7475  144.3315  162.2769 C.ar    1  UNL1        0.1311
      8 O         142.5154  144.7924  160.8684 O.3     1  UNL1       -0.5058
      9 C         141.6768  143.5734  163.0040 C.ar    1  UNL1        0.0308
     10 C         141.9089  143.1125  164.4124 C.ar    1  UNL1        0.0421
     11 H         143.1843  145.2660  160.4142 H       1  UNL1        0.2922
     12 C         141.3311  141.4743  167.8835 C.ar    1  UNL1        0.0349
     13 C         140.2255  142.0715  168.7026 C.ar    1  UNL1        0.0061
     14 C         139.7413  141.3677  169.9356 C.ar    1  UNL1        0.0367
     15 C         140.3627  140.0667  170.3494 C.ar    1  UNL1        0.1337
     16 O         139.8786  139.3629  171.5824 O.3     1  UNL1       -0.5055
     17 C         141.4683  139.4696  169.5303 C.ar    1  UNL1        0.0367
     18 C         141.9525  140.1734  168.2973 C.ar    1  UNL1        0.0061
     19 H         139.1879  139.7360  172.0941 H       1  UNL1        0.2922
     20 C         138.0339  139.8929  164.5777 C.3     1  UNL1        0.1109
     21 N         139.4227  140.3930  164.8447 N.am    1  UNL1       -0.2991
     22 C         139.6571  141.8512  165.1076 C.2     1  UNL1        0.2490
     23 O         138.5028  142.8090  165.1035 O.2     1  UNL1       -0.2700
     24 H         140.1803  139.7643  164.8474 H       1  UNL1        0.1498
     25 C         140.3739  143.2762  162.3227 C.3     1  UNL1        0.1023
     26 N         140.0889  141.8918  161.8205 N.3     1  UNL1       -0.2685
     27 C         138.8876  141.1960  161.2524 C.3     1  UNL1        0.0785
     28 C         139.6857  139.9339  161.1102 C.3     1  UNL1        0.0840
     29 C         138.4844  139.2383  160.5421 C.3     1  UNL1        0.1471
     30 O         139.2825  137.9762  160.4000 O.3     1  UNL1       -0.3534
     31 C         140.4838  138.6720  160.9681 C.3     1  UNL1        0.1471
     32 C         140.8870  140.6297  161.6784 C.3     1  UNL1        0.0785
@<TRIPOS>BOND
     1    20    21    1
     2    21    22   am
     3    22    23    2
     4    22     1    1
     5     1     2   ar
     6     2    12    1
     7    12    13   ar
     8    13    14   ar
     9    14    15   ar
    10    15    16    1
    11    15    17   ar
    12    17    18   ar
    13     2     3   ar
    14     3     4   ar
    15     4     5   ar
    16     5     6   ar
    17     6     7   ar
    18     7     8    1
    19     7     9   ar
    20     9    25    1
    21    25    26    1
    22    26    27    1
    23    27    28    1
    24    28    29    1
    25    29    30    1
    26    30    31    1
    27    28    32    1
    28     9    10   ar
    29    10     1   ar
    30    18    12   ar
    31    10     4   ar
    32    32    26    1
    33    31    28    1
    34    21    24    1
    35    16    19    1
    36     8    11    1
@<TRIPOS>MOLECULE
*****
 32 36 0 0 0
SMALL
GASTEIGER

@<TRIPOS>ATOM
      1 C         139.5970  140.6998  165.1485 C.ar    1  UNL1        0.0906
      2 C         139.6306  139.6460  166.2155 C.ar    1  UNL1        0.1496
      3 O         139.3425  138.3232  165.5697 O.2     1  UNL1       -0.4534
      4 C         139.1308  138.5594  164.1036 C.ar    1  UNL1        0.1454
      5 C         138.8151  137.6267  162.9720 C.ar    1  UNL1        0.0406
      6 C         138.6567  138.1629  161.5802 C.ar    1  UNL1        0.0395
      7 C         138.8140  139.6318  161.3199 C.ar    1  UNL1        0.1311
      8 O         138.6556  140.1680  159.9279 O.3     1  UNL1       -0.5058
      9 C         139.1297  140.5644  162.4514 C.ar    1  UNL1        0.0308
     10 C         139.2881  140.0282  163.8433 C.ar    1  UNL1        0.0421
     11 H         138.4584  139.5854  159.2210 H       1  UNL1        0.2922
     12 C         139.9044  139.8749  167.6724 C.ar    1  UNL1        0.0349
     13 C         138.7641  140.0120  168.6373 C.ar    1  UNL1        0.0061
     14 C         139.0378  140.2408  170.0942 C.ar    1  UNL1        0.0367
     15 C         140.4518  140.3327  170.5863 C.ar    1  UNL1        0.1337
     16 O         140.7255  140.5616  172.0433 O.3     1  UNL1       -0.5055
     17 C         141.5920  140.1956  169.6215 C.ar    1  UNL1        0.0367
     18 C         141.3183  139.9667  168.1645 C.ar    1  UNL1        0.0061
     19 H         140.0132  140.6472  172.6460 H       1  UNL1        0.2922
     20 C         138.9480  144.6108  165.3305 C.3     1  UNL1        0.1109
     21 N         138.7138  143.1431  165.1279 N.am    1  UNL1       -0.2991
     22 C         139.8312  142.1675  165.3511 C.2     1  UNL1        0.2490
     23 O         141.1826  142.6596  165.7770 O.2     1  UNL1       -0.2700
     24 H         137.8268  142.8202  164.8484 H       1  UNL1        0.1498
     25 C         139.2870  142.0333  162.1911 C.3     1  UNL1        0.1023
     26 N         140.6464  142.6644  162.2521 N.3     1  UNL1       -0.2685
     27 C         142.0497  142.1843  162.0283 C.3     1  UNL1        0.0785
     28 C         142.5689  143.5570  162.3384 C.3     1  UNL1        0.0840
     29 C         143.9722  143.0768  162.1145 C.3     1  UNL1        0.1471
     30 O         144.4914  144.4495  162.4246 O.3     1  UNL1       -0.3534
     31 C         143.0880  144.9296  162.6485 C.3     1  UNL1        0.1471
     32 C         141.1656  144.0371  162.5622 C.3     1  UNL1        0.0785
@<TRIPOS>BOND
     1    20    21    1
     2    21    22   am
     3    22    23    2
     4    22     1    1
     5     1     2   ar
     6     2    12    1
     7    12    13   ar
     8    13    14   ar
     9    14    15   ar
    10    15    16    1
    11    15    17   ar
    12    17    18   ar
    13     2     3   ar
    14     3     4   ar
    15     4     5   ar
    16     5     6   ar
    17     6     7   ar
    18     7     8    1
    19     7     9   ar
    20     9    25    1
    21    25    26    1
    22    26    27    1
    23    27    28    1
    24    28    29    1
    25    29    30    1
    26    30    31    1
    27    28    32    1
    28     9    10   ar
    29    10     1   ar
    30    18    12   ar
    31    10     4   ar
    32    32    26    1
    33    31    28    1
    34    21    24    1
    35    16    19    1
    36     8    11    1
