@<TRIPOS>MOLECULE
*****
 38 43 0 0 0
SMALL
GASTEIGER

@<TRIPOS>ATOM
      1 C         138.8747  140.1303  157.4964 C.3     1  UNL1        0.0652
      2 S         138.1232  141.4035  157.7498 S.3     1  UNL1       -0.0757
      3 C         139.0041  143.3167  161.0102 C.ar    1  UNL1        0.1669
      4 N         139.5520  144.2485  159.9703 N.ar    1  UNL1       -0.1282
      5 N         139.2888  143.6453  158.6224 N.ar    1  UNL1       -0.1221
      6 C         138.5781  142.3406  158.8292 C.ar    1  UNL1        0.1932
      7 N         138.4021  142.1375  160.3050 N.ar    1  UNL1       -0.2884
      8 C         137.7405  140.9617  160.9605 C.3     1  UNL1        0.1340
      9 C         144.1519  142.5703  165.5038 C.3     1  UNL1        0.0521
     10 C         142.8764  142.8095  164.7515 C.ar    1  UNL1        0.0593
     11 C         142.8305  142.5992  163.2669 C.ar    1  UNL1        0.0147
     12 C         141.5551  142.8383  162.5147 C.ar    1  UNL1        0.0028
     13 C         140.3255  143.2878  163.2469 C.ar    1  UNL1        0.0206
     14 C         139.0499  143.5270  162.4946 C.ar    1  UNL1        0.0374
     15 C         137.8203  143.9765  163.2268 C.ar    1  UNL1        0.0031
     16 C         137.8663  144.1867  164.7113 C.ar    1  UNL1        0.0016
     17 C         139.1418  143.9476  165.4636 C.ar    1  UNL1        0.0191
     18 C         140.3714  143.4981  164.7314 C.ar    1  UNL1        0.0810
     19 N         141.6469  143.2589  165.4837 N.ar    1  UNL1       -0.2497
     20 C         140.2146  139.9107  158.1338 C.3     1  UNL1        0.0135
     21 C         140.4448  138.7085  159.0009 C.3     1  UNL1        0.0182
     22 C         141.7247  138.5734  159.7712 C.3     1  UNL1        0.0721
     23 N         141.7346  138.7968  161.2545 N.3     1  UNL1       -0.2721
     24 C         143.0431  138.5422  161.9422 C.3     1  UNL1        0.0768
     25 C         143.3749  138.6732  163.3993 C.3     1  UNL1        0.0434
     26 C         142.4801  139.0911  164.5282 C.ar    1  UNL1       -0.0233
     27 C         143.2124  139.0895  165.8374 C.ar    1  UNL1        0.0178
     28 C         142.4972  139.4779  167.0973 C.ar    1  UNL1        0.1179
     29 N         142.9539  139.5698  168.5231 N.ar    1  UNL1       -0.2121
     30 C         141.7886  140.0167  169.3552 C.ar    1  UNL1        0.2062
     31 C         141.7985  140.2401  170.8385 C.3     1  UNL1        0.0950
     32 O         140.6117  140.2010  168.4437 O.2     1  UNL1       -0.4387
     33 C         141.0496  139.8680  167.0483 C.ar    1  UNL1        0.1600
     34 C         140.3173  139.8696  165.7392 C.ar    1  UNL1        0.0101
     35 C         138.8698  140.2597  165.6901 C.3     1  UNL1        0.0339
     36 C         141.0325  139.4812  164.4792 C.ar    1  UNL1       -0.0256
     37 C         140.1222  139.5497  163.2889 C.3     1  UNL1        0.0431
     38 C         140.4348  139.2452  161.8538 C.3     1  UNL1        0.0768
@<TRIPOS>BOND
     1     9    10    1
     2    10    11   ar
     3    11    12   ar
     4    12    13   ar
     5    13    14   ar
     6    14     3    1
     7     3     4   ar
     8     4     5   ar
     9     5     6   ar
    10     6     2    1
    11     2     1    1
    12     1    20    1
    13    20    21    1
    14    21    22    1
    15    22    23    1
    16    23    24    1
    17    24    25    1
    18    25    26    1
    19    26    27   ar
    20    27    28   ar
    21    28    29   ar
    22    29    30   ar
    23    30    31    1
    24    30    32   ar
    25    32    33   ar
    26    33    34   ar
    27    34    35    1
    28    34    36   ar
    29    36    37    1
    30    37    38    1
    31     6     7   ar
    32     7     8    1
    33    14    15   ar
    34    15    16   ar
    35    16    17   ar
    36    17    18   ar
    37    18    19   ar
    38    19    10   ar
    39    18    13   ar
    40     7     3   ar
    41    38    23    1
    42    36    26   ar
    43    33    28   ar
@<TRIPOS>MOLECULE
*****
 38 43 0 0 0
SMALL
GASTEIGER

@<TRIPOS>ATOM
      1 C         142.3267  144.2399  157.7592 C.3     1  UNL1        0.0652
      2 S         143.3077  143.2097  158.2352 S.3     1  UNL1       -0.0757
      3 C         142.7947  140.7974  161.2325 C.ar    1  UNL1        0.1669
      4 N         141.6702  140.3825  160.3307 N.ar    1  UNL1       -0.1282
      5 N         141.7254  141.2356  159.0982 N.ar    1  UNL1       -0.1221
      6 C         142.8841  142.1778  159.2382 C.ar    1  UNL1        0.1932
      7 N         143.5450  141.9070  160.5572 N.ar    1  UNL1       -0.2884
      8 C         144.7454  142.6205  161.1049 C.3     1  UNL1        0.1340
      9 C         138.7209  139.2418  166.5460 C.3     1  UNL1        0.0521
     10 C         139.8189  139.4830  165.5529 C.ar    1  UNL1        0.0593
     11 C         139.5005  140.0739  164.2114 C.ar    1  UNL1        0.0147
     12 C         140.5986  140.3151  163.2184 C.ar    1  UNL1        0.0028
     13 C         142.0150  139.9654  163.5669 C.ar    1  UNL1        0.0206
     14 C         143.1132  140.2066  162.5739 C.ar    1  UNL1        0.0374
     15 C         144.5296  139.8569  162.9223 C.ar    1  UNL1        0.0031
     16 C         144.8479  139.2661  164.2638 C.ar    1  UNL1        0.0016
     17 C         143.7499  139.0249  165.2568 C.ar    1  UNL1        0.0191
     18 C         142.3334  139.3745  164.9084 C.ar    1  UNL1        0.0810
     19 N         141.2354  139.1333  165.9014 N.ar    1  UNL1       -0.2497
     20 C         141.7907  145.2634  158.7157 C.3     1  UNL1        0.0135
     21 C         140.4790  145.0311  159.4054 C.3     1  UNL1        0.0182
     22 C         140.1752  145.7335  160.6954 C.3     1  UNL1        0.0721
     23 N         140.4704  145.0608  162.0033 N.3     1  UNL1       -0.2721
     24 C         139.2922  144.8514  162.9078 C.3     1  UNL1        0.0768
     25 C         139.2573  144.2160  164.2662 C.3     1  UNL1        0.0434
     26 C         140.3918  143.6330  165.0553 C.ar    1  UNL1       -0.0233
     27 C         139.9225  143.0962  166.3751 C.ar    1  UNL1        0.0178
     28 C         140.9029  142.4679  167.3206 C.ar    1  UNL1        0.1179
     29 N         140.7356  141.8564  168.6800 N.ar    1  UNL1       -0.2121
     30 C         142.0819  141.3870  169.1460 C.ar    1  UNL1        0.2062
     31 C         142.3770  140.7143  170.4539 C.3     1  UNL1        0.0950
     32 O         143.0812  141.7083  168.0746 O.2     1  UNL1       -0.4387
     33 C         142.3527  142.3763  166.9465 C.ar    1  UNL1        0.1600
     34 C         142.8220  142.9131  165.6267 C.ar    1  UNL1        0.0101
     35 C         144.2716  142.8216  165.2525 C.3     1  UNL1        0.0339
     36 C         141.8416  143.5414  164.6812 C.ar    1  UNL1       -0.0256
     37 C         142.5147  144.0103  163.4254 C.3     1  UNL1        0.0431
     38 C         141.9044  144.6865  162.2336 C.3     1  UNL1        0.0768
@<TRIPOS>BOND
     1     9    10    1
     2    10    11   ar
     3    11    12   ar
     4    12    13   ar
     5    13    14   ar
     6    14     3    1
     7     3     4   ar
     8     4     5   ar
     9     5     6   ar
    10     6     2    1
    11     2     1    1
    12     1    20    1
    13    20    21    1
    14    21    22    1
    15    22    23    1
    16    23    24    1
    17    24    25    1
    18    25    26    1
    19    26    27   ar
    20    27    28   ar
    21    28    29   ar
    22    29    30   ar
    23    30    31    1
    24    30    32   ar
    25    32    33   ar
    26    33    34   ar
    27    34    35    1
    28    34    36   ar
    29    36    37    1
    30    37    38    1
    31     6     7   ar
    32     7     8    1
    33    14    15   ar
    34    15    16   ar
    35    16    17   ar
    36    17    18   ar
    37    18    19   ar
    38    19    10   ar
    39    18    13   ar
    40     7     3   ar
    41    38    23    1
    42    36    26   ar
    43    33    28   ar
@<TRIPOS>MOLECULE
*****
 38 43 0 0 0
SMALL
GASTEIGER

@<TRIPOS>ATOM
      1 C         142.2479  144.9488  157.4758 C.3     1  UNL1        0.0652
      2 S         140.7930  145.1944  157.7459 S.3     1  UNL1       -0.0757
      3 C         139.1008  143.0893  160.5336 C.ar    1  UNL1        0.1669
      4 N         138.5454  142.4386  159.3015 N.ar    1  UNL1       -0.1282
      5 N         139.1117  143.1479  158.1073 N.ar    1  UNL1       -0.1221
      6 C         140.0171  144.2370  158.6013 C.ar    1  UNL1        0.1932
      7 N         140.0103  144.2008  160.1009 N.ar    1  UNL1       -0.2884
      8 C         140.7783  145.1155  161.0083 C.3     1  UNL1        0.1340
      9 C         140.5623  137.3496  164.0221 C.3     1  UNL1        0.0521
     10 C         140.1216  138.6865  163.5040 C.ar    1  UNL1        0.0593
     11 C         140.4228  139.0785  162.0877 C.ar    1  UNL1        0.0147
     12 C         139.9821  140.4154  161.5696 C.ar    1  UNL1        0.0028
     13 C         139.2403  141.3604  162.4678 C.ar    1  UNL1        0.0206
     14 C         138.7996  142.6974  161.9498 C.ar    1  UNL1        0.0374
     15 C         138.0577  143.6424  162.8479 C.ar    1  UNL1        0.0031
     16 C         137.7566  143.2503  164.2641 C.ar    1  UNL1        0.0016
     17 C         138.1972  141.9134  164.7822 C.ar    1  UNL1        0.0191
     18 C         138.9391  140.9684  163.8840 C.ar    1  UNL1        0.0810
     19 N         139.3797  139.6315  164.4021 N.ar    1  UNL1       -0.2497
     20 C         142.8074  143.5615  157.5862 C.3     1  UNL1        0.0135
     21 C         143.7233  143.2103  158.7211 C.3     1  UNL1        0.0182
     22 C         143.8511  141.7841  159.1678 C.3     1  UNL1        0.0721
     23 N         143.6553  141.4302  160.6123 N.3     1  UNL1       -0.2721
     24 C         144.1774  140.0873  161.0297 C.3     1  UNL1        0.0768
     25 C         144.1364  139.4484  162.3863 C.3     1  UNL1        0.0434
     26 C         143.5633  139.9946  163.6603 C.ar    1  UNL1       -0.0233
     27 C         143.7306  139.0280  164.7952 C.ar    1  UNL1        0.0178
     28 C         143.2242  139.3814  166.1621 C.ar    1  UNL1        0.1179
     29 N         143.2462  138.6369  167.4641 N.ar    1  UNL1       -0.2121
     30 C         142.5861  139.4966  168.5010 C.ar    1  UNL1        0.2062
     31 C         142.3903  139.1425  169.9454 C.3     1  UNL1        0.0950
     32 O         142.1562  140.7725  167.8398 O.2     1  UNL1       -0.4387
     33 C         142.5505  140.7013  166.3944 C.ar    1  UNL1        0.1600
     34 C         142.3832  141.6679  165.2595 C.ar    1  UNL1        0.0101
     35 C         141.7095  142.9878  165.4917 C.3     1  UNL1        0.0339
     36 C         142.8896  141.3145  163.8926 C.ar    1  UNL1       -0.0256
     37 C         142.6226  142.4143  162.9080 C.3     1  UNL1        0.0431
     38 C         142.9634  142.4657  161.4482 C.3     1  UNL1        0.0768
@<TRIPOS>BOND
     1     9    10    1
     2    10    11   ar
     3    11    12   ar
     4    12    13   ar
     5    13    14   ar
     6    14     3    1
     7     3     4   ar
     8     4     5   ar
     9     5     6   ar
    10     6     2    1
    11     2     1    1
    12     1    20    1
    13    20    21    1
    14    21    22    1
    15    22    23    1
    16    23    24    1
    17    24    25    1
    18    25    26    1
    19    26    27   ar
    20    27    28   ar
    21    28    29   ar
    22    29    30   ar
    23    30    31    1
    24    30    32   ar
    25    32    33   ar
    26    33    34   ar
    27    34    35    1
    28    34    36   ar
    29    36    37    1
    30    37    38    1
    31     6     7   ar
    32     7     8    1
    33    14    15   ar
    34    15    16   ar
    35    16    17   ar
    36    17    18   ar
    37    18    19   ar
    38    19    10   ar
    39    18    13   ar
    40     7     3   ar
    41    38    23    1
    42    36    26   ar
    43    33    28   ar
@<TRIPOS>MOLECULE
*****
 38 43 0 0 0
SMALL
GASTEIGER

@<TRIPOS>ATOM
      1 C         141.0775  139.6856  170.0599 C.3     1  UNL1        0.0652
      2 S         142.1720  139.4556  169.0602 S.3     1  UNL1       -0.0757
      3 C         143.3492  141.9262  166.3077 C.ar    1  UNL1        0.1669
      4 N         143.5264  142.7608  167.5414 N.ar    1  UNL1       -0.1282
      5 N         143.1070  141.9370  168.7226 N.ar    1  UNL1       -0.1221
      6 C         142.6706  140.5931  168.2190 C.ar    1  UNL1        0.1932
      7 N         142.8203  140.5864  166.7265 N.ar    1  UNL1       -0.2884
      8 C         142.4978  139.4412  165.8132 C.3     1  UNL1        0.1340
      9 C         139.8294  145.9492  161.9862 C.3     1  UNL1        0.0521
     10 C         140.7841  145.0508  162.7152 C.ar    1  UNL1        0.0593
     11 C         140.4849  144.6212  164.1209 C.ar    1  UNL1        0.0147
     12 C         141.4397  143.7229  164.8499 C.ar    1  UNL1        0.0028
     13 C         142.6936  143.2541  164.1731 C.ar    1  UNL1        0.0206
     14 C         143.6484  142.3557  164.9021 C.ar    1  UNL1        0.0374
     15 C         144.9024  141.8870  164.2254 C.ar    1  UNL1        0.0031
     16 C         145.2015  142.3166  162.8197 C.ar    1  UNL1        0.0016
     17 C         144.2467  143.2150  162.0907 C.ar    1  UNL1        0.0191
     18 C         142.9928  143.6837  162.7674 C.ar    1  UNL1        0.0810
     19 N         142.0380  144.5821  162.0384 N.ar    1  UNL1       -0.2497
     20 C         139.7550  140.2329  169.6112 C.3     1  UNL1        0.0135
     21 C         139.4890  140.4484  168.1507 C.3     1  UNL1        0.0182
     22 C         138.8682  139.3554  167.3322 C.3     1  UNL1        0.0721
     23 N         138.8734  139.4445  165.8349 N.3     1  UNL1       -0.2721
     24 C         139.1962  138.1723  165.1084 C.3     1  UNL1        0.0768
     25 C         139.2804  137.9354  163.6295 C.3     1  UNL1        0.0434
     26 C         139.0626  138.9120  162.5121 C.ar    1  UNL1       -0.0233
     27 C         139.2450  138.2617  161.1727 C.ar    1  UNL1        0.0178
     28 C         139.0716  139.0661  159.9186 C.ar    1  UNL1        0.1179
     29 N         139.1864  138.7013  158.4682 N.ar    1  UNL1       -0.2121
     30 C         138.9016  139.9305  157.6571 C.ar    1  UNL1        0.2062
     31 C         138.9068  140.0195  156.1597 C.3     1  UNL1        0.0950
     32 O         138.6108  141.0550  158.6061 O.2     1  UNL1       -0.4387
     33 C         138.7158  140.5209  160.0038 C.ar    1  UNL1        0.1600
     34 C         138.5334  141.1711  161.3432 C.ar    1  UNL1        0.0101
     35 C         138.1776  142.6258  161.4284 C.3     1  UNL1        0.0339
     36 C         138.7068  140.3667  162.5973 C.ar    1  UNL1       -0.0256
     37 C         138.4810  141.2041  163.8211 C.3     1  UNL1        0.0431
     38 C         138.5551  140.7936  165.2620 C.3     1  UNL1        0.0768
@<TRIPOS>BOND
     1     9    10    1
     2    10    11   ar
     3    11    12   ar
     4    12    13   ar
     5    13    14   ar
     6    14     3    1
     7     3     4   ar
     8     4     5   ar
     9     5     6   ar
    10     6     2    1
    11     2     1    1
    12     1    20    1
    13    20    21    1
    14    21    22    1
    15    22    23    1
    16    23    24    1
    17    24    25    1
    18    25    26    1
    19    26    27   ar
    20    27    28   ar
    21    28    29   ar
    22    29    30   ar
    23    30    31    1
    24    30    32   ar
    25    32    33   ar
    26    33    34   ar
    27    34    35    1
    28    34    36   ar
    29    36    37    1
    30    37    38    1
    31     6     7   ar
    32     7     8    1
    33    14    15   ar
    34    15    16   ar
    35    16    17   ar
    36    17    18   ar
    37    18    19   ar
    38    19    10   ar
    39    18    13   ar
    40     7     3   ar
    41    38    23    1
    42    36    26   ar
    43    33    28   ar
@<TRIPOS>MOLECULE
*****
 38 43 0 0 0
SMALL
GASTEIGER

@<TRIPOS>ATOM
      1 C         139.3114  141.9303  157.3766 C.3     1  UNL1        0.0652
      2 S         140.4271  142.9064  157.6052 S.3     1  UNL1       -0.0757
      3 C         142.6272  142.6996  160.7963 C.ar    1  UNL1        0.1669
      4 N         143.3811  141.7968  159.8654 N.ar    1  UNL1       -0.1282
      5 N         142.6488  141.7644  158.5567 N.ar    1  UNL1       -0.1221
      6 C         141.4422  142.6472  158.6788 C.ar    1  UNL1        0.1932
      7 N         141.4288  143.2252  160.0629 N.ar    1  UNL1       -0.2884
      8 C         140.3982  144.1639  160.6165 C.3     1  UNL1        0.1340
      9 C         143.0225  138.6921  166.3671 C.3     1  UNL1        0.0521
     10 C         143.0182  139.7742  165.3283 C.ar    1  UNL1        0.0593
     11 C         142.6402  139.4533  163.9126 C.ar    1  UNL1        0.0147
     12 C         142.6359  140.5354  162.8738 C.ar    1  UNL1        0.0028
     13 C         143.0095  141.9384  163.2507 C.ar    1  UNL1        0.0206
     14 C         143.0052  143.0205  162.2119 C.ar    1  UNL1        0.0374
     15 C         143.3788  144.4235  162.5888 C.ar    1  UNL1        0.0031
     16 C         143.7568  144.7443  164.0045 C.ar    1  UNL1        0.0016
     17 C         143.7611  143.6623  165.0433 C.ar    1  UNL1        0.0191
     18 C         143.3875  142.2593  164.6664 C.ar    1  UNL1        0.0810
     19 N         143.3918  141.1772  165.7052 N.ar    1  UNL1       -0.2497
     20 C         138.4332  141.5140  158.5192 C.3     1  UNL1        0.0135
     21 C         138.6904  140.2178  159.2292 C.3     1  UNL1        0.0182
     22 C         137.8010  139.7927  160.3598 C.3     1  UNL1        0.0721
     23 N         138.2422  139.9972  161.7788 N.3     1  UNL1       -0.2721
     24 C         138.2268  138.7745  162.6476 C.3     1  UNL1        0.0768
     25 C         138.6059  138.6499  164.0937 C.3     1  UNL1        0.0434
     26 C         139.0939  139.7172  165.0278 C.ar    1  UNL1       -0.0233
     27 C         139.3612  139.1665  166.3972 C.ar    1  UNL1        0.0178
     28 C         139.8580  140.0712  167.4856 C.ar    1  UNL1        0.1179
     29 N         140.2067  139.8159  168.9220 N.ar    1  UNL1       -0.2121
     30 C         140.6517  141.1136  169.5287 C.ar    1  UNL1        0.2062
     31 C         141.0929  141.3179  170.9477 C.3     1  UNL1        0.0950
     32 O         140.5781  142.1708  168.4673 O.2     1  UNL1       -0.4387
     33 C         140.0876  141.5267  167.2046 C.ar    1  UNL1        0.1600
     34 C         139.8203  142.0774  165.8352 C.ar    1  UNL1        0.0101
     35 C         140.0498  143.5328  165.5542 C.3     1  UNL1        0.0339
     36 C         139.3234  141.1727  164.7468 C.ar    1  UNL1       -0.0256
     37 C         139.1216  141.9203  163.4622 C.3     1  UNL1        0.0431
     38 C         138.6404  141.3971  162.1413 C.3     1  UNL1        0.0768
@<TRIPOS>BOND
     1     9    10    1
     2    10    11   ar
     3    11    12   ar
     4    12    13   ar
     5    13    14   ar
     6    14     3    1
     7     3     4   ar
     8     4     5   ar
     9     5     6   ar
    10     6     2    1
    11     2     1    1
    12     1    20    1
    13    20    21    1
    14    21    22    1
    15    22    23    1
    16    23    24    1
    17    24    25    1
    18    25    26    1
    19    26    27   ar
    20    27    28   ar
    21    28    29   ar
    22    29    30   ar
    23    30    31    1
    24    30    32   ar
    25    32    33   ar
    26    33    34   ar
    27    34    35    1
    28    34    36   ar
    29    36    37    1
    30    37    38    1
    31     6     7   ar
    32     7     8    1
    33    14    15   ar
    34    15    16   ar
    35    16    17   ar
    36    17    18   ar
    37    18    19   ar
    38    19    10   ar
    39    18    13   ar
    40     7     3   ar
    41    38    23    1
    42    36    26   ar
    43    33    28   ar
@<TRIPOS>MOLECULE
*****
 38 43 0 0 0
SMALL
GASTEIGER

@<TRIPOS>ATOM
      1 C         139.1392  139.6185  157.1893 C.3     1  UNL1        0.0652
      2 S         139.9783  138.4469  157.6056 S.3     1  UNL1       -0.0757
      3 C         141.7913  138.6382  161.0323 C.ar    1  UNL1        0.1669
      4 N         142.9289  138.8916  160.0880 N.ar    1  UNL1       -0.1282
      5 N         142.3883  138.8508  158.6895 N.ar    1  UNL1       -0.1221
      6 C         140.9165  138.5722  158.7694 C.ar    1  UNL1        0.1932
      7 N         140.5476  138.4408  160.2174 N.ar    1  UNL1       -0.2884
      8 C         139.1758  138.1611  160.7558 C.3     1  UNL1        0.1340
      9 C         144.2941  143.1877  165.5365 C.3     1  UNL1        0.0521
     10 C         143.6910  142.0384  164.7846 C.ar    1  UNL1        0.0593
     11 C         143.6007  142.0860  163.2880 C.ar    1  UNL1        0.0147
     12 C         142.9976  140.9368  162.5361 C.ar    1  UNL1        0.0028
     13 C         142.4847  139.7399  163.2807 C.ar    1  UNL1        0.0206
     14 C         141.8816  138.5905  162.5288 C.ar    1  UNL1        0.0374
     15 C         141.3687  137.3936  163.2734 C.ar    1  UNL1        0.0031
     16 C         141.4590  137.3461  164.7700 C.ar    1  UNL1        0.0016
     17 C         142.0621  138.4954  165.5219 C.ar    1  UNL1        0.0191
     18 C         142.5750  139.6923  164.7773 C.ar    1  UNL1        0.0810
     19 N         143.1781  140.8416  165.5292 N.ar    1  UNL1       -0.2497
     20 C         139.2956  140.9380  157.8854 C.3     1  UNL1        0.0135
     21 C         138.3556  141.3190  158.9905 C.3     1  UNL1        0.0182
     22 C         138.6384  142.5279  159.8323 C.3     1  UNL1        0.0721
     23 N         138.9260  142.3719  161.2962 N.3     1  UNL1       -0.2721
     24 C         139.6904  143.4949  161.9324 C.3     1  UNL1        0.0768
     25 C         140.1289  143.6369  163.3599 C.3     1  UNL1        0.0434
     26 C         139.9111  142.6912  164.5036 C.ar    1  UNL1       -0.0233
     27 C         140.5152  143.2169  165.7720 C.ar    1  UNL1        0.0178
     28 C         140.4094  142.4212  167.0391 C.ar    1  UNL1        0.1179
     29 N         140.9023  142.6812  168.4317 N.ar    1  UNL1       -0.2121
     30 C         140.4971  141.5205  169.2912 C.ar    1  UNL1        0.2062
     31 C         140.7848  141.3647  170.7551 C.3     1  UNL1        0.0950
     32 O         139.7537  140.5432  168.4298 O.2     1  UNL1       -0.4387
     33 C         139.6995  141.0998  167.0380 C.ar    1  UNL1        0.1600
     34 C         139.0954  140.5741  165.7695 C.ar    1  UNL1        0.0101
     35 C         138.3856  139.2528  165.7683 C.3     1  UNL1        0.0339
     36 C         139.2013  141.3698  164.5024 C.ar    1  UNL1       -0.0256
     37 C         138.5338  140.6678  163.3571 C.3     1  UNL1        0.0431
     38 C         138.4113  141.1139  161.9302 C.3     1  UNL1        0.0768
@<TRIPOS>BOND
     1     9    10    1
     2    10    11   ar
     3    11    12   ar
     4    12    13   ar
     5    13    14   ar
     6    14     3    1
     7     3     4   ar
     8     4     5   ar
     9     5     6   ar
    10     6     2    1
    11     2     1    1
    12     1    20    1
    13    20    21    1
    14    21    22    1
    15    22    23    1
    16    23    24    1
    17    24    25    1
    18    25    26    1
    19    26    27   ar
    20    27    28   ar
    21    28    29   ar
    22    29    30   ar
    23    30    31    1
    24    30    32   ar
    25    32    33   ar
    26    33    34   ar
    27    34    35    1
    28    34    36   ar
    29    36    37    1
    30    37    38    1
    31     6     7   ar
    32     7     8    1
    33    14    15   ar
    34    15    16   ar
    35    16    17   ar
    36    17    18   ar
    37    18    19   ar
    38    19    10   ar
    39    18    13   ar
    40     7     3   ar
    41    38    23    1
    42    36    26   ar
    43    33    28   ar
@<TRIPOS>MOLECULE
*****
 38 43 0 0 0
SMALL
GASTEIGER

@<TRIPOS>ATOM
      1 C         143.6614  141.9496  157.0859 C.3     1  UNL1        0.0652
      2 S         142.6056  140.8841  157.0788 S.3     1  UNL1       -0.0757
      3 C         141.6600  138.8629  160.2547 C.ar    1  UNL1        0.1669
      4 N         142.9028  138.1473  159.8150 N.ar    1  UNL1       -0.1282
      5 N         143.4083  138.8172  158.5719 N.ar    1  UNL1       -0.1221
      6 C         142.4779  139.9470  158.2431 C.ar    1  UNL1        0.1932
      7 N         141.3974  139.9752  159.2832 N.ar    1  UNL1       -0.2884
      8 C         140.2549  140.9454  159.3415 C.3     1  UNL1        0.1340
      9 C         143.2345  138.7689  166.9451 C.3     1  UNL1        0.0521
     10 C         142.6324  138.7081  165.5726 C.ar    1  UNL1        0.0593
     11 C         143.4663  139.0454  164.3722 C.ar    1  UNL1        0.0147
     12 C         142.8642  138.9846  162.9997 C.ar    1  UNL1        0.0028
     13 C         141.4283  138.5864  162.8275 C.ar    1  UNL1        0.0206
     14 C         140.8262  138.5255  161.4550 C.ar    1  UNL1        0.0374
     15 C         139.3903  138.1273  161.2829 C.ar    1  UNL1        0.0031
     16 C         138.5565  137.7899  162.4833 C.ar    1  UNL1        0.0016
     17 C         139.1586  137.8508  163.8558 C.ar    1  UNL1        0.0191
     18 C         140.5945  138.2490  164.0280 C.ar    1  UNL1        0.0810
     19 N         141.1965  138.3098  165.4005 N.ar    1  UNL1       -0.2497
     20 C         143.4211  143.2385  157.8145 C.3     1  UNL1        0.0135
     21 C         143.0045  143.2192  159.2554 C.3     1  UNL1        0.0182
     22 C         143.9960  142.8475  160.3178 C.3     1  UNL1        0.0721
     23 N         143.5534  142.7201  161.7453 N.3     1  UNL1       -0.2721
     24 C         144.6296  142.8836  162.7774 C.3     1  UNL1        0.0768
     25 C         144.5112  142.8134  164.2712 C.3     1  UNL1        0.0434
     26 C         143.2876  142.5624  165.1016 C.ar    1  UNL1       -0.0233
     27 C         143.6081  142.5734  166.5669 C.ar    1  UNL1        0.0178
     28 C         142.5210  142.3416  167.5742 C.ar    1  UNL1        0.1179
     29 N         142.5350  142.2955  169.0734 N.ar    1  UNL1       -0.2121
     30 C         141.1361  142.0241  169.5418 C.ar    1  UNL1        0.2062
     31 C         140.6935  141.8967  170.9694 C.3     1  UNL1        0.0950
     32 O         140.2576  141.9025  168.3322 O.2     1  UNL1       -0.4387
     33 C         141.1134  142.0988  167.1161 C.ar    1  UNL1        0.1600
     34 C         140.7930  142.0877  165.6507 C.ar    1  UNL1        0.0101
     35 C         139.3855  141.8449  165.1927 C.3     1  UNL1        0.0339
     36 C         141.8801  142.3195  164.6435 C.ar    1  UNL1       -0.0256
     37 C         141.3485  142.2677  163.2418 C.3     1  UNL1        0.0431
     38 C         142.0933  142.4460  161.9520 C.3     1  UNL1        0.0768
@<TRIPOS>BOND
     1     9    10    1
     2    10    11   ar
     3    11    12   ar
     4    12    13   ar
     5    13    14   ar
     6    14     3    1
     7     3     4   ar
     8     4     5   ar
     9     5     6   ar
    10     6     2    1
    11     2     1    1
    12     1    20    1
    13    20    21    1
    14    21    22    1
    15    22    23    1
    16    23    24    1
    17    24    25    1
    18    25    26    1
    19    26    27   ar
    20    27    28   ar
    21    28    29   ar
    22    29    30   ar
    23    30    31    1
    24    30    32   ar
    25    32    33   ar
    26    33    34   ar
    27    34    35    1
    28    34    36   ar
    29    36    37    1
    30    37    38    1
    31     6     7   ar
    32     7     8    1
    33    14    15   ar
    34    15    16   ar
    35    16    17   ar
    36    17    18   ar
    37    18    19   ar
    38    19    10   ar
    39    18    13   ar
    40     7     3   ar
    41    38    23    1
    42    36    26   ar
    43    33    28   ar
@<TRIPOS>MOLECULE
*****
 38 43 0 0 0
SMALL
GASTEIGER

@<TRIPOS>ATOM
      1 C         142.4827  143.8376  157.6399 C.3     1  UNL1        0.0652
      2 S         141.0789  144.3525  157.7585 S.3     1  UNL1       -0.0757
      3 C         139.3774  143.5637  161.1569 C.ar    1  UNL1        0.1669
      4 N         138.4018  142.9524  160.1955 N.ar    1  UNL1       -0.1282
      5 N         138.9203  143.1734  158.8054 N.ar    1  UNL1       -0.1221
      6 C         140.2165  143.9214  158.9077 C.ar    1  UNL1        0.1932
      7 N         140.4990  144.1626  160.3610 N.ar    1  UNL1       -0.2884
      8 C         141.6933  144.8773  160.9203 C.3     1  UNL1        0.1340
      9 C         139.6058  138.4349  165.7277 C.3     1  UNL1        0.0521
     10 C         139.5177  139.7197  164.9587 C.ar    1  UNL1        0.0593
     11 C         139.6417  139.7091  163.4638 C.ar    1  UNL1        0.0147
     12 C         139.5536  140.9940  162.6948 C.ar    1  UNL1        0.0028
     13 C         139.3414  142.2894  163.4206 C.ar    1  UNL1        0.0206
     14 C         139.2533  143.5744  162.6517 C.ar    1  UNL1        0.0374
     15 C         139.0411  144.8698  163.3775 C.ar    1  UNL1        0.0031
     16 C         138.9170  144.8803  164.8723 C.ar    1  UNL1        0.0016
     17 C         139.0052  143.5955  165.6413 C.ar    1  UNL1        0.0191
     18 C         139.2174  142.3000  164.9155 C.ar    1  UNL1        0.0810
     19 N         139.3055  141.0152  165.6845 N.ar    1  UNL1       -0.2497
     20 C         142.8150  142.4515  158.1070 C.3     1  UNL1        0.0135
     21 C         143.7971  142.2514  159.2232 C.3     1  UNL1        0.0182
     22 C         143.8022  140.9660  159.9963 C.3     1  UNL1        0.0721
     23 N         143.5692  140.9809  161.4780 N.3     1  UNL1       -0.2721
     24 C         143.2634  142.3226  162.0752 C.3     1  UNL1        0.0768
     25 C         142.9857  142.6670  163.5085 C.3     1  UNL1        0.0434
     26 C         142.9451  141.7548  164.6985 C.ar    1  UNL1       -0.0233
     27 C         142.6298  142.5087  165.9564 C.ar    1  UNL1        0.0178
     28 C         142.5415  141.7808  167.2649 C.ar    1  UNL1        0.1179
     29 N         142.2498  142.2529  168.6584 N.ar    1  UNL1       -0.2121
     30 C         142.2965  141.0629  169.5704 C.ar    1  UNL1        0.2062
     31 C         142.0635  141.0779  171.0521 C.3     1  UNL1        0.0950
     32 O         142.6172  139.8553  168.7405 O.2     1  UNL1       -0.4387
     33 C         142.7686  140.2989  167.3157 C.ar    1  UNL1        0.1600
     34 C         143.0840  139.5450  166.0578 C.ar    1  UNL1        0.0101
     35 C         143.3111  138.0632  166.1085 C.3     1  UNL1        0.0339
     36 C         143.1722  140.2729  164.7493 C.ar    1  UNL1       -0.0256
     37 C         143.4960  139.3373  163.6224 C.3     1  UNL1        0.0431
     38 C         143.6726  139.6525  162.1666 C.3     1  UNL1        0.0768
@<TRIPOS>BOND
     1     9    10    1
     2    10    11   ar
     3    11    12   ar
     4    12    13   ar
     5    13    14   ar
     6    14     3    1
     7     3     4   ar
     8     4     5   ar
     9     5     6   ar
    10     6     2    1
    11     2     1    1
    12     1    20    1
    13    20    21    1
    14    21    22    1
    15    22    23    1
    16    23    24    1
    17    24    25    1
    18    25    26    1
    19    26    27   ar
    20    27    28   ar
    21    28    29   ar
    22    29    30   ar
    23    30    31    1
    24    30    32   ar
    25    32    33   ar
    26    33    34   ar
    27    34    35    1
    28    34    36   ar
    29    36    37    1
    30    37    38    1
    31     6     7   ar
    32     7     8    1
    33    14    15   ar
    34    15    16   ar
    35    16    17   ar
    36    17    18   ar
    37    18    19   ar
    38    19    10   ar
    39    18    13   ar
    40     7     3   ar
    41    38    23    1
    42    36    26   ar
    43    33    28   ar
@<TRIPOS>MOLECULE
*****
 38 43 0 0 0
SMALL
GASTEIGER

@<TRIPOS>ATOM
      1 C         140.6756  144.1793  157.7380 C.3     1  UNL1        0.0652
      2 S         141.5306  142.9605  157.9218 S.3     1  UNL1       -0.0757
      3 C         141.3590  141.1283  161.3393 C.ar    1  UNL1        0.1669
      4 N         142.6756  141.8373  161.4563 N.ar    1  UNL1       -0.1282
      5 N         142.9003  142.6099  160.1904 N.ar    1  UNL1       -0.1221
      6 C         141.7224  142.3785  159.2910 C.ar    1  UNL1        0.1932
      7 N         140.7698  141.4628  160.0010 N.ar    1  UNL1       -0.2884
      8 C         139.4583  140.9684  159.4667 C.3     1  UNL1        0.1340
      9 C         144.1570  137.8138  166.6718 C.3     1  UNL1        0.0521
     10 C         143.3028  138.4206  165.5984 C.ar    1  UNL1        0.0593
     11 C         143.9217  139.3082  164.5595 C.ar    1  UNL1        0.0147
     12 C         143.0675  139.9149  163.4861 C.ar    1  UNL1        0.0028
     13 C         141.5944  139.6340  163.4515 C.ar    1  UNL1        0.0206
     14 C         140.7401  140.2408  162.3781 C.ar    1  UNL1        0.0374
     15 C         139.2670  139.9599  162.3436 C.ar    1  UNL1        0.0031
     16 C         138.6482  139.0723  163.3824 C.ar    1  UNL1        0.0016
     17 C         139.5024  138.4655  164.4558 C.ar    1  UNL1        0.0191
     18 C         140.9755  138.7464  164.4904 C.ar    1  UNL1        0.0810
     19 N         141.8297  138.1397  165.5638 N.ar    1  UNL1       -0.2497
     20 C         139.9013  144.7338  158.8968 C.3     1  UNL1        0.0135
     21 C         140.5718  145.6498  159.8773 C.3     1  UNL1        0.0182
     22 C         139.9379  145.9146  161.2107 C.3     1  UNL1        0.0721
     23 N         140.2318  145.0133  162.3731 N.3     1  UNL1       -0.2721
     24 C         139.0545  144.2747  162.9378 C.3     1  UNL1        0.0768
     25 C         139.0188  143.3100  164.0860 C.3     1  UNL1        0.0434
     26 C         140.1513  142.8459  164.9530 C.ar    1  UNL1       -0.0233
     27 C         139.6817  141.8724  165.9932 C.ar    1  UNL1        0.0178
     28 C         140.6601  141.2847  166.9665 C.ar    1  UNL1        0.1179
     29 N         140.4921  140.3083  168.0927 N.ar    1  UNL1       -0.2121
     30 C         141.8363  140.0905  168.7218 C.ar    1  UNL1        0.2062
     31 C         142.1300  139.1891  169.8843 C.3     1  UNL1        0.0950
     32 O         142.8350  140.9323  167.9844 O.2     1  UNL1       -0.4387
     33 C         142.1082  141.6703  166.8996 C.ar    1  UNL1        0.1600
     34 C         142.5777  142.6438  165.8594 C.ar    1  UNL1        0.0101
     35 C         144.0257  143.0295  165.7925 C.3     1  UNL1        0.0339
     36 C         141.5993  143.2316  164.8862 C.ar    1  UNL1       -0.0256
     37 C         142.2724  144.1767  163.9357 C.3     1  UNL1        0.0431
     38 C         141.6637  144.9697  162.8172 C.3     1  UNL1        0.0768
@<TRIPOS>BOND
     1     9    10    1
     2    10    11   ar
     3    11    12   ar
     4    12    13   ar
     5    13    14   ar
     6    14     3    1
     7     3     4   ar
     8     4     5   ar
     9     5     6   ar
    10     6     2    1
    11     2     1    1
    12     1    20    1
    13    20    21    1
    14    21    22    1
    15    22    23    1
    16    23    24    1
    17    24    25    1
    18    25    26    1
    19    26    27   ar
    20    27    28   ar
    21    28    29   ar
    22    29    30   ar
    23    30    31    1
    24    30    32   ar
    25    32    33   ar
    26    33    34   ar
    27    34    35    1
    28    34    36   ar
    29    36    37    1
    30    37    38    1
    31     6     7   ar
    32     7     8    1
    33    14    15   ar
    34    15    16   ar
    35    16    17   ar
    36    17    18   ar
    37    18    19   ar
    38    19    10   ar
    39    18    13   ar
    40     7     3   ar
    41    38    23    1
    42    36    26   ar
    43    33    28   ar
