@<TRIPOS>MOLECULE
*****
 45 50 0 0 0
SMALL
GASTEIGER

@<TRIPOS>ATOM
      1 C         138.8257  138.8714  165.8842 C.ar    1  UNL1        0.1658
      2 C         137.8267  138.6653  166.9839 C.ar    1  UNL1        0.1363
      3 N         138.1166  139.1730  168.3653 N.ar    1  UNL1       -0.2392
      4 C         139.4055  139.8868  168.6469 C.ar    1  UNL1        0.0975
      5 C         139.6953  140.3945  170.0283 C.ar    1  UNL1        0.0255
      6 C         140.9842  141.1083  170.3099 C.ar    1  UNL1        0.0623
      7 C         141.9832  141.3144  169.2100 C.ar    1  UNL1        0.2611
      8 O         143.2721  142.0282  169.4916 O.2     1  UNL1       -0.2670
      9 N         141.6933  140.8067  167.8287 N.ar    1  UNL1       -0.2926
     10 C         140.4045  140.0929  167.5471 C.ar    1  UNL1        0.0832
     11 C         140.1146  139.5852  166.1658 C.ar    1  UNL1        0.0579
     12 O         138.5359  138.3636  164.5027 O.3     1  UNL1       -0.4519
     13 C         138.5726  141.2000  161.0094 C.ar    1  UNL1        0.1219
     14 C         139.3329  139.9091  160.9353 C.ar    1  UNL1        0.0230
     15 C         139.3207  138.9636  162.0998 C.ar    1  UNL1        0.0389
     16 C         138.5481  139.3090  163.3383 C.ar    1  UNL1        0.1455
     17 C         137.7878  140.6000  163.4123 C.ar    1  UNL1        0.0389
     18 C         137.8001  141.5454  162.2478 C.ar    1  UNL1        0.0230
     19 N         138.5972  143.0908  158.6804 N.3     1  UNL1       -0.2035
     20 S         138.5849  142.1454  159.8449 S.O2    1  UNL1        0.0572
     21 O         138.1674  143.2660  160.7504 O.2     1  UNL1       -0.1532
     22 O         139.0023  141.0248  158.9395 O.2     1  UNL1       -0.1532
     23 H         138.3323  144.0236  158.9969 H       1  UNL1        0.1442
     24 H         137.9339  142.7700  157.9750 H       1  UNL1        0.1442
     25 C         142.6923  141.0128  166.7289 C.3     1  UNL1        0.1264
     26 C         143.0691  142.4025  166.3087 C.3     1  UNL1        0.0970
     27 N         142.7952  142.8626  164.9074 N.3     1  UNL1       -0.2710
     28 C         141.7206  142.2002  164.0972 C.3     1  UNL1        0.0728
     29 C         141.4467  142.6601  162.6960 C.3     1  UNL1        0.0298
     30 C         142.2474  143.7825  162.1050 C.3     1  UNL1        0.1147
     31 C         143.3220  144.4449  162.9152 C.3     1  UNL1        0.0298
     32 C         143.5959  143.9849  164.3165 C.3     1  UNL1        0.0728
     33 C         141.9735  144.2425  160.7038 C.2     1  UNL1        0.3507
     34 N         140.9011  145.2042  160.2853 N.2     1  UNL1       -0.0351
     35 C         140.9887  145.3776  158.7979 C.2     1  UNL1        0.2317
     36 C         140.1883  146.2032  157.8348 C.2     1  UNL1        0.0537
     37 C         140.5143  146.1742  156.3709 C.2     1  UNL1        0.0714
     38 C         141.6408  145.3197  155.8702 C.2     1  UNL1       -0.0133
     39 C         142.4413  144.4940  156.8333 C.3     1  UNL1        0.1037
     40 C         142.1152  144.5230  158.2972 C.2     1  UNL1        0.2174
     41 N         142.7238  143.8215  159.4751 N.2     1  UNL1       -0.0389
     42 C         139.7139  146.9998  155.4078 C.3     1  UNL1        0.4184
     43 F         138.9134  147.8255  154.4447 F       1  UNL1       -0.1659
     44 F         139.1469  147.7857  156.5527 F       1  UNL1       -0.1659
     45 F         140.2808  146.2139  154.2629 F       1  UNL1       -0.1659
@<TRIPOS>BOND
     1    19    20    1
     2    20    21    2
     3    20    22    2
     4    20    13    1
     5    13    14   ar
     6    14    15   ar
     7    15    16   ar
     8    16    12    1
     9    12     1    1
    10     1     2   ar
    11     2     3   ar
    12     3     4   ar
    13     4     5   ar
    14     5     6   ar
    15     6     7   ar
    16     7     8    2
    17     7     9   ar
    18     9    25    1
    19    25    26    1
    20    26    27    1
    21    27    28    1
    22    28    29    1
    23    29    30    1
    24    30    33    1
    25    33    34    2
    26    34    35    1
    27    35    36    2
    28    36    37    1
    29    37    42    1
    30    42    43    1
    31    42    44    1
    32    42    45    1
    33    37    38    2
    34    38    39    1
    35    39    40    1
    36    40    41    2
    37    30    31    1
    38    31    32    1
    39     9    10   ar
    40    10    11   ar
    41    16    17   ar
    42    17    18   ar
    43    18    13   ar
    44    11     1   ar
    45    10     4   ar
    46    32    27    1
    47    41    33    1
    48    40    35    1
    49    19    23    1
    50    19    24    1
@<TRIPOS>MOLECULE
*****
 45 50 0 0 0
SMALL
GASTEIGER

@<TRIPOS>ATOM
      1 C         143.8057  142.3051  158.7374 C.ar    1  UNL1        0.1658
      2 C         144.8306  142.8645  157.7958 C.ar    1  UNL1        0.1363
      3 N         145.3274  142.0349  156.6491 N.ar    1  UNL1       -0.2392
      4 C         144.7994  140.6460  156.4440 C.ar    1  UNL1        0.0975
      5 C         145.2964  139.8164  155.2973 C.ar    1  UNL1        0.0255
      6 C         144.7684  138.4274  155.0922 C.ar    1  UNL1        0.0623
      7 C         143.7434  137.8681  156.0339 C.ar    1  UNL1        0.2611
      8 O         143.2154  136.4791  155.8288 O.2     1  UNL1       -0.2670
      9 N         143.2465  138.6976  157.1806 N.ar    1  UNL1       -0.2926
     10 C         143.7745  140.0866  157.3856 C.ar    1  UNL1        0.0832
     11 C         143.2776  140.9161  158.5323 C.ar    1  UNL1        0.0579
     12 O         143.3087  143.1347  159.8841 O.3     1  UNL1       -0.4519
     13 C         139.3765  142.1481  161.8370 C.ar    1  UNL1        0.1219
     14 C         140.6634  141.8061  162.5275 C.ar    1  UNL1        0.0230
     15 C         141.9742  142.1350  161.8765 C.ar    1  UNL1        0.0389
     16 C         141.9980  142.8058  160.5351 C.ar    1  UNL1        0.1455
     17 C         140.7109  143.1477  159.8446 C.ar    1  UNL1        0.0389
     18 C         139.4002  142.8189  160.4956 C.ar    1  UNL1        0.0230
     19 N         136.7549  141.4904  163.1390 N.3     1  UNL1       -0.2035
     20 S         138.0657  141.8192  162.4880 S.O2    1  UNL1        0.0572
     21 O         138.6479  140.5410  163.0145 O.2     1  UNL1       -0.1532
     22 O         137.4836  143.0974  161.9615 O.2     1  UNL1       -0.1532
     23 H         136.8310  140.5963  163.6241 H       1  UNL1        0.1442
     24 H         136.0273  141.4298  162.4267 H       1  UNL1        0.1442
     25 C         142.2216  138.1383  158.1221 C.3     1  UNL1        0.1264
     26 C         142.6472  137.2449  159.2494 C.3     1  UNL1        0.0970
     27 N         142.6809  137.7729  160.6531 N.3     1  UNL1       -0.2710
     28 C         141.4415  137.7383  161.4973 C.3     1  UNL1        0.0728
     29 C         141.4751  138.2663  162.9009 C.3     1  UNL1        0.0298
     30 C         142.7482  138.8288  163.4603 C.3     1  UNL1        0.1147
     31 C         143.9876  138.8634  162.6161 C.3     1  UNL1        0.0298
     32 C         143.9539  138.3354  161.2125 C.3     1  UNL1        0.0728
     33 C         142.7818  139.3567  164.8639 C.2     1  UNL1        0.3507
     34 N         143.0604  140.7747  165.2662 N.2     1  UNL1       -0.0351
     35 C         142.9935  140.8538  166.7626 C.2     1  UNL1        0.2317
     36 C         143.1826  141.9955  167.7168 C.2     1  UNL1        0.0537
     37 C         143.0517  141.7681  169.1937 C.2     1  UNL1        0.0714
     38 C         142.7318  140.3990  169.7163 C.2     1  UNL1       -0.0133
     39 C         142.5428  139.2572  168.7621 C.3     1  UNL1        0.1037
     40 C         142.6736  139.4846  167.2852 C.2     1  UNL1        0.2174
     41 N         142.5428  138.5594  166.1118 N.2     1  UNL1       -0.0389
     42 C         143.2408  142.9099  170.1480 C.3     1  UNL1        0.4184
     43 F         143.4298  144.0517  171.1023 F       1  UNL1       -0.1659
     44 F         141.7532  143.0785  170.2409 F       1  UNL1       -0.1659
     45 F         144.7283  142.7412  170.0550 F       1  UNL1       -0.1659
@<TRIPOS>BOND
     1    19    20    1
     2    20    21    2
     3    20    22    2
     4    20    13    1
     5    13    14   ar
     6    14    15   ar
     7    15    16   ar
     8    16    12    1
     9    12     1    1
    10     1     2   ar
    11     2     3   ar
    12     3     4   ar
    13     4     5   ar
    14     5     6   ar
    15     6     7   ar
    16     7     8    2
    17     7     9   ar
    18     9    25    1
    19    25    26    1
    20    26    27    1
    21    27    28    1
    22    28    29    1
    23    29    30    1
    24    30    33    1
    25    33    34    2
    26    34    35    1
    27    35    36    2
    28    36    37    1
    29    37    42    1
    30    42    43    1
    31    42    44    1
    32    42    45    1
    33    37    38    2
    34    38    39    1
    35    39    40    1
    36    40    41    2
    37    30    31    1
    38    31    32    1
    39     9    10   ar
    40    10    11   ar
    41    16    17   ar
    42    17    18   ar
    43    18    13   ar
    44    11     1   ar
    45    10     4   ar
    46    32    27    1
    47    41    33    1
    48    40    35    1
    49    19    23    1
    50    19    24    1
@<TRIPOS>MOLECULE
*****
 45 50 0 0 0
SMALL
GASTEIGER

@<TRIPOS>ATOM
      1 C         144.4941  142.0716  159.0416 C.ar    1  UNL1        0.1658
      2 C         145.4648  142.6000  158.0275 C.ar    1  UNL1        0.1363
      3 N         145.6552  141.8803  156.7254 N.ar    1  UNL1       -0.2392
      4 C         144.8748  140.6320  156.4373 C.ar    1  UNL1        0.0975
      5 C         145.0653  139.9122  155.1351 C.ar    1  UNL1        0.0255
      6 C         144.2849  138.6640  154.8471 C.ar    1  UNL1        0.0623
      7 C         143.3142  138.1356  155.8612 C.ar    1  UNL1        0.2611
      8 O         142.5338  136.8873  155.5732 O.2     1  UNL1       -0.2670
      9 N         143.1238  138.8553  157.1634 N.ar    1  UNL1       -0.2926
     10 C         143.9041  140.1036  157.4514 C.ar    1  UNL1        0.0832
     11 C         143.7137  140.8234  158.7536 C.ar    1  UNL1        0.0579
     12 O         144.3036  142.7914  160.3438 O.3     1  UNL1       -0.4519
     13 C         140.1532  143.7003  161.8264 C.ar    1  UNL1        0.1219
     14 C         140.6291  144.2795  160.5272 C.ar    1  UNL1        0.0230
     15 C         142.0126  143.9765  160.0329 C.ar    1  UNL1        0.0389
     16 C         142.9202  143.0944  160.8380 C.ar    1  UNL1        0.1455
     17 C         142.4442  142.5151  162.1373 C.ar    1  UNL1        0.0389
     18 C         141.0608  142.8181  162.6314 C.ar    1  UNL1        0.0230
     19 N         137.3862  144.3062  162.8147 N.3     1  UNL1       -0.2035
     20 S         138.7698  144.0032  162.3205 S.O2    1  UNL1        0.0572
     21 O         139.3487  144.6601  163.5385 O.2     1  UNL1       -0.1532
     22 O         138.1909  143.3464  161.1026 O.2     1  UNL1       -0.1532
     23 H         137.4437  144.7960  163.7075 H       1  UNL1        0.1442
     24 H         136.8707  143.4347  162.9376 H       1  UNL1        0.1442
     25 C         142.1530  138.3269  158.1774 C.3     1  UNL1        0.1264
     26 C         142.6354  137.4384  159.2856 C.3     1  UNL1        0.0970
     27 N         142.6699  137.9495  160.6955 N.3     1  UNL1       -0.2710
     28 C         143.9663  138.4061  161.2962 C.3     1  UNL1        0.0728
     29 C         144.0008  138.9171  162.7060 C.3     1  UNL1        0.0298
     30 C         142.7389  138.9715  163.5152 C.3     1  UNL1        0.1147
     31 C         141.4425  138.5148  162.9145 C.3     1  UNL1        0.0298
     32 C         141.4080  138.0038  161.5046 C.3     1  UNL1        0.0728
     33 C         142.7734  139.4825  164.9250 C.2     1  UNL1        0.3507
     34 N         143.1204  140.8790  165.3484 N.2     1  UNL1       -0.0351
     35 C         143.0285  140.9463  166.8441 C.2     1  UNL1        0.2317
     36 C         143.2602  142.0663  167.8145 C.2     1  UNL1        0.0537
     37 C         143.0883  141.8314  169.2860 C.2     1  UNL1        0.0714
     38 C         142.6846  140.4764  169.7870 C.2     1  UNL1       -0.0133
     39 C         142.4528  139.3563  168.8165 C.3     1  UNL1        0.1037
     40 C         142.6247  139.5913  167.3450 C.2     1  UNL1        0.2174
     41 N         142.4671  138.6866  166.1590 N.2     1  UNL1       -0.0389
     42 C         143.3200  142.9514  170.2565 C.3     1  UNL1        0.4184
     43 F         143.5518  144.0714  171.2270 F       1  UNL1       -0.1659
     44 F         141.8384  143.1068  170.4309 F       1  UNL1       -0.1659
     45 F         144.8017  142.7959  170.0820 F       1  UNL1       -0.1659
@<TRIPOS>BOND
     1    19    20    1
     2    20    21    2
     3    20    22    2
     4    20    13    1
     5    13    14   ar
     6    14    15   ar
     7    15    16   ar
     8    16    12    1
     9    12     1    1
    10     1     2   ar
    11     2     3   ar
    12     3     4   ar
    13     4     5   ar
    14     5     6   ar
    15     6     7   ar
    16     7     8    2
    17     7     9   ar
    18     9    25    1
    19    25    26    1
    20    26    27    1
    21    27    28    1
    22    28    29    1
    23    29    30    1
    24    30    33    1
    25    33    34    2
    26    34    35    1
    27    35    36    2
    28    36    37    1
    29    37    42    1
    30    42    43    1
    31    42    44    1
    32    42    45    1
    33    37    38    2
    34    38    39    1
    35    39    40    1
    36    40    41    2
    37    30    31    1
    38    31    32    1
    39     9    10   ar
    40    10    11   ar
    41    16    17   ar
    42    17    18   ar
    43    18    13   ar
    44    11     1   ar
    45    10     4   ar
    46    32    27    1
    47    41    33    1
    48    40    35    1
    49    19    23    1
    50    19    24    1
@<TRIPOS>MOLECULE
*****
 45 50 0 0 0
SMALL
GASTEIGER

@<TRIPOS>ATOM
      1 C         140.5118  145.0786  158.2712 C.ar    1  UNL1        0.1658
      2 C         140.1298  146.0426  157.1874 C.ar    1  UNL1        0.1363
      3 N         139.2440  145.5944  156.0630 N.ar    1  UNL1       -0.2392
      4 C         138.7401  144.1821  156.0224 C.ar    1  UNL1        0.0975
      5 C         137.8542  143.7339  154.8979 C.ar    1  UNL1        0.0255
      6 C         137.3504  142.3216  154.8574 C.ar    1  UNL1        0.0623
      7 C         137.7324  141.3576  155.9413 C.ar    1  UNL1        0.2611
      8 O         137.2286  139.9453  155.9007 O.2     1  UNL1       -0.2670
      9 N         138.6182  141.8058  157.0657 N.ar    1  UNL1       -0.2926
     10 C         139.1221  143.2181  157.1063 C.ar    1  UNL1        0.0832
     11 C         140.0079  143.6664  158.2307 C.ar    1  UNL1        0.0579
     12 O         141.3976  145.5268  159.3957 O.3     1  UNL1       -0.4519
     13 C         140.4886  144.2620  163.6175 C.ar    1  UNL1        0.1219
     14 C         141.6935  143.7126  162.9130 C.ar    1  UNL1        0.0230
     15 C         141.9965  144.1342  161.5057 C.ar    1  UNL1        0.0389
     16 C         141.0946  145.1052  160.8030 C.ar    1  UNL1        0.1455
     17 C         139.8897  145.6546  161.5076 C.ar    1  UNL1        0.0389
     18 C         139.5867  145.2329  162.9148 C.ar    1  UNL1        0.0230
     19 N         139.8826  143.4186  166.4321 N.3     1  UNL1       -0.2035
     20 S         140.1856  143.8403  165.0248 S.O2    1  UNL1        0.0572
     21 O         138.8473  144.5121  164.9379 O.2     1  UNL1       -0.1532
     22 O         141.5239  143.1685  165.1116 O.2     1  UNL1       -0.1532
     23 H         138.9560  143.7538  166.6954 H       1  UNL1        0.1442
     24 H         140.5794  143.8146  167.0631 H       1  UNL1        0.1442
     25 C         139.0002  140.8418  158.1495 C.3     1  UNL1        0.1264
     26 C         138.0084  140.4797  159.2149 C.3     1  UNL1        0.0970
     27 N         138.4467  140.3842  160.6464 N.3     1  UNL1       -0.2710
     28 C         139.5193  139.4119  161.0390 C.3     1  UNL1        0.0728
     29 C         139.9576  139.3164  162.4703 C.3     1  UNL1        0.0298
     30 C         139.3233  140.1932  163.5091 C.3     1  UNL1        0.1147
     31 C         138.2507  141.1655  163.1164 C.3     1  UNL1        0.0298
     32 C         137.8124  141.2610  161.6850 C.3     1  UNL1        0.0728
     33 C         139.7616  140.0977  164.9404 C.2     1  UNL1        0.3507
     34 N         141.1527  139.8046  165.4189 N.2     1  UNL1       -0.0351
     35 C         141.1366  139.8043  166.9188 C.2     1  UNL1        0.2317
     36 C         142.2167  139.5751  167.9341 C.2     1  UNL1        0.0537
     37 C         141.8958  139.6388  169.3979 C.2     1  UNL1        0.0714
     38 C         140.4947  139.9317  169.8465 C.2     1  UNL1       -0.0133
     39 C         139.4146  140.1609  168.8312 C.3     1  UNL1        0.1037
     40 C         139.7355  140.0972  167.3673 C.2     1  UNL1        0.2174
     41 N         138.8857  140.2785  166.1446 N.2     1  UNL1       -0.0389
     42 C         142.9758  139.4097  170.4132 C.3     1  UNL1        0.4184
     43 F         144.0560  139.1805  171.4286 F       1  UNL1       -0.1659
     44 F         143.2297  140.8866  170.4765 F       1  UNL1       -0.1659
     45 F         142.7219  137.9327  170.3500 F       1  UNL1       -0.1659
@<TRIPOS>BOND
     1    19    20    1
     2    20    21    2
     3    20    22    2
     4    20    13    1
     5    13    14   ar
     6    14    15   ar
     7    15    16   ar
     8    16    12    1
     9    12     1    1
    10     1     2   ar
    11     2     3   ar
    12     3     4   ar
    13     4     5   ar
    14     5     6   ar
    15     6     7   ar
    16     7     8    2
    17     7     9   ar
    18     9    25    1
    19    25    26    1
    20    26    27    1
    21    27    28    1
    22    28    29    1
    23    29    30    1
    24    30    33    1
    25    33    34    2
    26    34    35    1
    27    35    36    2
    28    36    37    1
    29    37    42    1
    30    42    43    1
    31    42    44    1
    32    42    45    1
    33    37    38    2
    34    38    39    1
    35    39    40    1
    36    40    41    2
    37    30    31    1
    38    31    32    1
    39     9    10   ar
    40    10    11   ar
    41    16    17   ar
    42    17    18   ar
    43    18    13   ar
    44    11     1   ar
    45    10     4   ar
    46    32    27    1
    47    41    33    1
    48    40    35    1
    49    19    23    1
    50    19    24    1
@<TRIPOS>MOLECULE
*****
 45 50 0 0 0
SMALL
GASTEIGER

@<TRIPOS>ATOM
      1 C         139.7183  140.4779  159.2209 C.ar    1  UNL1        0.1658
      2 C         138.4466  139.8567  158.7242 C.ar    1  UNL1        0.1363
      3 N         137.6013  140.5804  157.7184 N.ar    1  UNL1       -0.2392
      4 C         138.0278  141.9254  157.2093 C.ar    1  UNL1        0.0975
      5 C         137.1825  142.6492  156.2035 C.ar    1  UNL1        0.0255
      6 C         137.6090  143.9942  155.6944 C.ar    1  UNL1        0.0623
      7 C         138.8808  144.6154  156.1912 C.ar    1  UNL1        0.2611
      8 O         139.3072  145.9604  155.6821 O.2     1  UNL1       -0.2670
      9 N         139.7260  143.8916  157.1970 N.ar    1  UNL1       -0.2926
     10 C         139.2995  142.5466  157.7061 C.ar    1  UNL1        0.0832
     11 C         140.1448  141.8228  158.7119 C.ar    1  UNL1        0.0579
     12 O         140.5636  139.7541  160.2268 O.3     1  UNL1       -0.4519
     13 C         138.9716  138.9815  164.3642 C.ar    1  UNL1        0.1219
     14 C         139.8354  137.9575  163.6897 C.ar    1  UNL1        0.0230
     15 C         140.3661  138.2150  162.3105 C.ar    1  UNL1        0.0389
     16 C         140.0330  139.4966  161.6059 C.ar    1  UNL1        0.1455
     17 C         139.1691  140.5207  162.2805 C.ar    1  UNL1        0.0389
     18 C         138.6384  140.2631  163.6596 C.ar    1  UNL1        0.0230
     19 N         137.9103  138.4665  167.1226 N.3     1  UNL1       -0.2035
     20 S         138.4409  138.7240  165.7434 S.O2    1  UNL1        0.0572
     21 O         138.4882  137.2471  165.4857 O.2     1  UNL1       -0.1532
     22 O         138.3937  140.2009  166.0010 O.2     1  UNL1       -0.1532
     23 H         137.8202  137.4612  167.2700 H       1  UNL1        0.1442
     24 H         136.9963  138.9081  167.2231 H       1  UNL1        0.1442
     25 C         140.9977  144.5128  157.6937 C.3     1  UNL1        0.1264
     26 C         140.9812  145.3778  158.9191 C.3     1  UNL1        0.0970
     27 N         141.0381  144.7507  160.2806 N.3     1  UNL1       -0.2710
     28 C         142.2443  143.9598  160.6922 C.3     1  UNL1        0.0728
     29 C         142.3013  143.3328  162.0536 C.3     1  UNL1        0.0298
     30 C         141.1520  143.4966  163.0035 C.3     1  UNL1        0.1147
     31 C         139.9457  144.2875  162.5919 C.3     1  UNL1        0.0298
     32 C         139.8888  144.9146  161.2304 C.3     1  UNL1        0.0728
     33 C         141.2089  142.8696  164.3650 C.2     1  UNL1        0.3507
     34 N         141.8957  141.5827  164.7150 N.2     1  UNL1       -0.0351
     35 C         141.7003  141.3371  166.1818 C.2     1  UNL1        0.2317
     36 C         142.1534  140.2266  167.0825 C.2     1  UNL1        0.0537
     37 C         141.7989  140.2510  168.5399 C.2     1  UNL1        0.0714
     38 C         140.9914  141.3860  169.0964 C.2     1  UNL1       -0.0133
     39 C         140.5383  142.4966  168.1956 C.3     1  UNL1        0.1037
     40 C         140.8928  142.4721  166.7383 C.2     1  UNL1        0.2174
     41 N         140.5891  143.4192  165.6154 N.2     1  UNL1       -0.0389
     42 C         142.2520  139.1405  169.4407 C.3     1  UNL1        0.4184
     43 F         142.7051  138.0299  170.3415 F       1  UNL1       -0.1659
     44 F         142.9757  138.5037  168.2915 F       1  UNL1       -0.1659
     45 F         141.5282  139.7774  170.5898 F       1  UNL1       -0.1659
@<TRIPOS>BOND
     1    19    20    1
     2    20    21    2
     3    20    22    2
     4    20    13    1
     5    13    14   ar
     6    14    15   ar
     7    15    16   ar
     8    16    12    1
     9    12     1    1
    10     1     2   ar
    11     2     3   ar
    12     3     4   ar
    13     4     5   ar
    14     5     6   ar
    15     6     7   ar
    16     7     8    2
    17     7     9   ar
    18     9    25    1
    19    25    26    1
    20    26    27    1
    21    27    28    1
    22    28    29    1
    23    29    30    1
    24    30    33    1
    25    33    34    2
    26    34    35    1
    27    35    36    2
    28    36    37    1
    29    37    42    1
    30    42    43    1
    31    42    44    1
    32    42    45    1
    33    37    38    2
    34    38    39    1
    35    39    40    1
    36    40    41    2
    37    30    31    1
    38    31    32    1
    39     9    10   ar
    40    10    11   ar
    41    16    17   ar
    42    17    18   ar
    43    18    13   ar
    44    11     1   ar
    45    10     4   ar
    46    32    27    1
    47    41    33    1
    48    40    35    1
    49    19    23    1
    50    19    24    1
@<TRIPOS>MOLECULE
*****
 45 50 0 0 0
SMALL
GASTEIGER

@<TRIPOS>ATOM
      1 C         138.9549  138.9735  165.5950 C.ar    1  UNL1        0.1658
      2 C         137.9095  138.7149  166.6392 C.ar    1  UNL1        0.1363
      3 N         138.1439  139.1437  168.0573 N.ar    1  UNL1       -0.2392
      4 C         139.4237  139.8311  168.4312 C.ar    1  UNL1        0.0975
      5 C         139.6580  140.2600  169.8494 C.ar    1  UNL1        0.0255
      6 C         140.9377  140.9474  170.2233 C.ar    1  UNL1        0.0623
      7 C         141.9831  141.2060  169.1790 C.ar    1  UNL1        0.2611
      8 O         143.2628  141.8934  169.5530 O.2     1  UNL1       -0.2670
      9 N         141.7487  140.7771  167.7609 N.ar    1  UNL1       -0.2926
     10 C         140.4690  140.0897  167.3870 C.ar    1  UNL1        0.0832
     11 C         140.2346  139.6609  165.9689 C.ar    1  UNL1        0.0579
     12 O         138.7205  138.5446  164.1768 O.3     1  UNL1       -0.4519
     13 C         141.9129  139.1949  161.0727 C.ar    1  UNL1        0.1219
     14 C         140.9659  140.3054  161.4186 C.ar    1  UNL1        0.0230
     15 C         139.9017  140.0887  162.4533 C.ar    1  UNL1        0.0389
     16 C         139.7846  138.7614  163.1421 C.ar    1  UNL1        0.1455
     17 C         140.7317  137.6508  162.7962 C.ar    1  UNL1        0.0389
     18 C         141.7958  137.8675  161.7615 C.ar    1  UNL1        0.0230
     19 N         144.0413  139.6284  159.0033 N.3     1  UNL1       -0.2035
     20 S         142.9771  139.4116  160.0380 S.O2    1  UNL1        0.0572
     21 O         142.0380  140.2798  159.2542 O.2     1  UNL1       -0.1532
     22 O         143.9161  138.5434  160.8219 O.2     1  UNL1       -0.1532
     23 H         143.6805  140.2341  158.2662 H       1  UNL1        0.1442
     24 H         144.3139  138.7308  158.6028 H       1  UNL1        0.1442
     25 C         142.7940  141.0357  166.7167 C.3     1  UNL1        0.1264
     26 C         143.1028  142.4422  166.2968 C.3     1  UNL1        0.0970
     27 N         142.8375  142.8792  164.8865 N.3     1  UNL1       -0.2710
     28 C         141.5265  143.5166  164.5329 C.3     1  UNL1        0.0728
     29 C         141.2612  143.9536  163.1228 C.3     1  UNL1        0.0298
     30 C         142.3069  143.7533  162.0661 C.3     1  UNL1        0.1147
     31 C         143.6179  143.1159  162.4197 C.3     1  UNL1        0.0298
     32 C         143.8832  142.6789  163.8300 C.3     1  UNL1        0.0728
     33 C         142.0416  144.1903  160.6560 C.2     1  UNL1        0.3507
     34 N         141.0082  145.1869  160.2214 N.2     1  UNL1       -0.0351
     35 C         141.0910  145.3201  158.7297 C.2     1  UNL1        0.2317
     36 C         140.3189  146.1557  157.7521 C.2     1  UNL1        0.0537
     37 C         140.6315  146.0770  156.2872 C.2     1  UNL1        0.0714
     38 C         141.7160  145.1627  155.7997 C.2     1  UNL1       -0.0133
     39 C         142.4881  144.3270  156.7773 C.3     1  UNL1        0.1037
     40 C         142.1756  144.4057  158.2423 C.2     1  UNL1        0.2174
     41 N         142.7631  143.7075  159.4328 N.2     1  UNL1       -0.0389
     42 C         139.8594  146.9126  155.3096 C.3     1  UNL1        0.4184
     43 F         139.0873  147.7483  154.3321 F       1  UNL1       -0.1659
     44 F         138.8156  147.1714  156.3553 F       1  UNL1       -0.1659
     45 F         140.9032  146.6538  154.2640 F       1  UNL1       -0.1659
@<TRIPOS>BOND
     1    19    20    1
     2    20    21    2
     3    20    22    2
     4    20    13    1
     5    13    14   ar
     6    14    15   ar
     7    15    16   ar
     8    16    12    1
     9    12     1    1
    10     1     2   ar
    11     2     3   ar
    12     3     4   ar
    13     4     5   ar
    14     5     6   ar
    15     6     7   ar
    16     7     8    2
    17     7     9   ar
    18     9    25    1
    19    25    26    1
    20    26    27    1
    21    27    28    1
    22    28    29    1
    23    29    30    1
    24    30    33    1
    25    33    34    2
    26    34    35    1
    27    35    36    2
    28    36    37    1
    29    37    42    1
    30    42    43    1
    31    42    44    1
    32    42    45    1
    33    37    38    2
    34    38    39    1
    35    39    40    1
    36    40    41    2
    37    30    31    1
    38    31    32    1
    39     9    10   ar
    40    10    11   ar
    41    16    17   ar
    42    17    18   ar
    43    18    13   ar
    44    11     1   ar
    45    10     4   ar
    46    32    27    1
    47    41    33    1
    48    40    35    1
    49    19    23    1
    50    19    24    1
@<TRIPOS>MOLECULE
*****
 45 50 0 0 0
SMALL
GASTEIGER

@<TRIPOS>ATOM
      1 C         138.1785  140.7211  157.4576 C.ar    1  UNL1        0.1658
      2 C         136.9741  140.6911  156.5642 C.ar    1  UNL1        0.1363
      3 N         136.6171  141.8965  155.7458 N.ar    1  UNL1       -0.2392
      4 C         137.4646  143.1318  155.8210 C.ar    1  UNL1        0.0975
      5 C         137.1076  144.3372  155.0026 C.ar    1  UNL1        0.0255
      6 C         137.9551  145.5725  155.0777 C.ar    1  UNL1        0.0623
      7 C         139.1597  145.6025  155.9712 C.ar    1  UNL1        0.2611
      8 O         140.0072  146.8378  156.0463 O.2     1  UNL1       -0.2670
      9 N         139.5166  144.3972  156.7895 N.ar    1  UNL1       -0.2926
     10 C         138.6691  143.1618  156.7144 C.ar    1  UNL1        0.0832
     11 C         139.0261  141.9565  157.5327 C.ar    1  UNL1        0.0579
     12 O         138.5356  139.5158  158.2760 O.3     1  UNL1       -0.4519
     13 C         138.4766  139.7491  162.7695 C.ar    1  UNL1        0.1219
     14 C         139.1310  138.5844  162.0876 C.ar    1  UNL1        0.0230
     15 C         139.1507  138.5066  160.5897 C.ar    1  UNL1        0.0389
     16 C         138.5159  139.5935  159.7738 C.ar    1  UNL1        0.1455
     17 C         137.8614  140.7583  160.4558 C.ar    1  UNL1        0.0389
     18 C         137.8417  140.8360  161.9537 C.ar    1  UNL1        0.0230
     19 N         138.4372  139.9046  165.7653 N.3     1  UNL1       -0.2035
     20 S         138.4569  139.8269  164.2673 S.O2    1  UNL1        0.0572
     21 O         137.9847  141.2484  164.1873 O.2     1  UNL1       -0.1532
     22 O         138.9291  138.4054  164.3474 O.2     1  UNL1       -0.1532
     23 H         138.1301  140.8336  166.0535 H       1  UNL1        0.1442
     24 H         139.3746  139.7290  166.1272 H       1  UNL1        0.1442
     25 C         140.7211  144.4272  157.6829 C.3     1  UNL1        0.1264
     26 C         140.7293  145.3015  158.9017 C.3     1  UNL1        0.0970
     27 N         140.8335  144.6859  160.2657 N.3     1  UNL1       -0.2710
     28 C         141.2084  143.2407  160.4096 C.3     1  UNL1        0.0728
     29 C         141.3126  142.6251  161.7734 C.3     1  UNL1        0.0298
     30 C         141.0420  143.4548  162.9935 C.3     1  UNL1        0.1147
     31 C         140.6671  144.9000  162.8496 C.3     1  UNL1        0.0298
     32 C         140.5628  145.5156  161.4856 C.3     1  UNL1        0.0728
     33 C         141.1462  142.8392  164.3573 C.2     1  UNL1        0.3507
     34 N         141.8996  141.5897  164.7055 N.2     1  UNL1       -0.0351
     35 C         141.7344  141.3433  166.1759 C.2     1  UNL1        0.2317
     36 C         142.2524  140.2616  167.0767 C.2     1  UNL1        0.0537
     37 C         141.9149  140.2771  168.5382 C.2     1  UNL1        0.0714
     38 C         141.0594  141.3743  169.0988 C.2     1  UNL1       -0.0133
     39 C         140.5414  142.4561  168.1979 C.3     1  UNL1        0.1037
     40 C         140.8789  142.4406  166.7364 C.2     1  UNL1        0.2174
     41 N         140.5154  143.3650  165.6125 N.2     1  UNL1       -0.0389
     42 C         142.4329  139.1954  169.4390 C.3     1  UNL1        0.4184
     43 F         142.9509  138.1137  170.3400 F       1  UNL1       -0.1659
     44 F         141.9067  139.9370  170.6320 F       1  UNL1       -0.1659
     45 F         142.9590  138.4538  168.2461 F       1  UNL1       -0.1659
@<TRIPOS>BOND
     1    19    20    1
     2    20    21    2
     3    20    22    2
     4    20    13    1
     5    13    14   ar
     6    14    15   ar
     7    15    16   ar
     8    16    12    1
     9    12     1    1
    10     1     2   ar
    11     2     3   ar
    12     3     4   ar
    13     4     5   ar
    14     5     6   ar
    15     6     7   ar
    16     7     8    2
    17     7     9   ar
    18     9    25    1
    19    25    26    1
    20    26    27    1
    21    27    28    1
    22    28    29    1
    23    29    30    1
    24    30    33    1
    25    33    34    2
    26    34    35    1
    27    35    36    2
    28    36    37    1
    29    37    42    1
    30    42    43    1
    31    42    44    1
    32    42    45    1
    33    37    38    2
    34    38    39    1
    35    39    40    1
    36    40    41    2
    37    30    31    1
    38    31    32    1
    39     9    10   ar
    40    10    11   ar
    41    16    17   ar
    42    17    18   ar
    43    18    13   ar
    44    11     1   ar
    45    10     4   ar
    46    32    27    1
    47    41    33    1
    48    40    35    1
    49    19    23    1
    50    19    24    1
@<TRIPOS>MOLECULE
*****
 45 50 0 0 0
SMALL
GASTEIGER

@<TRIPOS>ATOM
      1 C         138.4112  141.2091  158.1639 C.ar    1  UNL1        0.1658
      2 C         137.2115  141.0058  157.2868 C.ar    1  UNL1        0.1363
      3 N         137.2862  140.0665  156.1197 N.ar    1  UNL1       -0.2392
      4 C         138.5607  139.3304  155.8299 C.ar    1  UNL1        0.0975
      5 C         138.6353  138.3910  154.6628 C.ar    1  UNL1        0.0255
      6 C         139.9097  137.6549  154.3729 C.ar    1  UNL1        0.0623
      7 C         141.1095  137.8582  155.2501 C.ar    1  UNL1        0.2611
      8 O         142.3839  137.1221  154.9602 O.2     1  UNL1       -0.2670
      9 N         141.0348  138.7975  156.4171 N.ar    1  UNL1       -0.2926
     10 C         139.7603  139.5336  156.7070 C.ar    1  UNL1        0.0832
     11 C         139.6856  140.4730  157.8740 C.ar    1  UNL1        0.0579
     12 O         138.3365  142.1485  159.3310 O.3     1  UNL1       -0.4519
     13 C         138.8012  140.5733  163.5205 C.ar    1  UNL1        0.1219
     14 C         139.4374  141.8754  163.1341 C.ar    1  UNL1        0.0230
     15 C         139.2826  142.4006  161.7375 C.ar    1  UNL1        0.0389
     16 C         138.4914  141.6234  160.7275 C.ar    1  UNL1        0.1455
     17 C         137.8551  140.3212  161.1140 C.ar    1  UNL1        0.0389
     18 C         138.0100  139.7961  162.5105 C.ar    1  UNL1        0.0230
     19 N         139.1109  139.5231  166.3136 N.3     1  UNL1       -0.2035
     20 S         138.9561  140.0482  164.9170 S.O2    1  UNL1        0.0572
     21 O         139.3058  141.4259  165.3962 O.2     1  UNL1       -0.1532
     22 O         138.6063  138.6705  164.4379 O.2     1  UNL1       -0.1532
     23 H         139.3703  140.2873  166.9374 H       1  UNL1        0.1442
     24 H         139.8392  138.8091  166.3296 H       1  UNL1        0.1442
     25 C         142.2344  139.0008  157.2942 C.3     1  UNL1        0.1264
     26 C         142.5715  137.9901  158.3500 C.3     1  UNL1        0.0970
     27 N         142.6055  138.3963  159.7936 N.3     1  UNL1       -0.2710
     28 C         143.8818  138.8976  160.4018 C.3     1  UNL1        0.0728
     29 C         143.9158  139.3038  161.8453 C.3     1  UNL1        0.0298
     30 C         142.6735  139.2089  162.6807 C.3     1  UNL1        0.1147
     31 C         141.3972  138.7077  162.0725 C.3     1  UNL1        0.0298
     32 C         141.3632  138.3014  160.6289 C.3     1  UNL1        0.0728
     33 C         142.7075  139.6151  164.1242 C.2     1  UNL1        0.3507
     34 N         142.7993  141.0196  164.6430 N.2     1  UNL1       -0.0351
     35 C         142.8043  140.9608  166.1418 C.2     1  UNL1        0.2317
     36 C         142.8781  142.0330  167.1881 C.2     1  UNL1        0.0537
     37 C         142.8632  141.6644  168.6421 C.2     1  UNL1        0.0714
     38 C         142.7745  140.2236  169.0497 C.2     1  UNL1       -0.0133
     39 C         142.7007  139.1513  168.0033 C.3     1  UNL1        0.1037
     40 C         142.7155  139.5199  166.5494 C.2     1  UNL1        0.2174
     41 N         142.6558  138.6883  165.3024 N.2     1  UNL1       -0.0389
     42 C         142.9370  142.7366  169.6884 C.3     1  UNL1        0.4184
     43 F         143.0108  143.8089  170.7348 F       1  UNL1       -0.1659
     44 F         141.5266  143.1396  169.3750 F       1  UNL1       -0.1659
     45 F         144.3475  142.3337  170.0018 F       1  UNL1       -0.1659
@<TRIPOS>BOND
     1    19    20    1
     2    20    21    2
     3    20    22    2
     4    20    13    1
     5    13    14   ar
     6    14    15   ar
     7    15    16   ar
     8    16    12    1
     9    12     1    1
    10     1     2   ar
    11     2     3   ar
    12     3     4   ar
    13     4     5   ar
    14     5     6   ar
    15     6     7   ar
    16     7     8    2
    17     7     9   ar
    18     9    25    1
    19    25    26    1
    20    26    27    1
    21    27    28    1
    22    28    29    1
    23    29    30    1
    24    30    33    1
    25    33    34    2
    26    34    35    1
    27    35    36    2
    28    36    37    1
    29    37    42    1
    30    42    43    1
    31    42    44    1
    32    42    45    1
    33    37    38    2
    34    38    39    1
    35    39    40    1
    36    40    41    2
    37    30    31    1
    38    31    32    1
    39     9    10   ar
    40    10    11   ar
    41    16    17   ar
    42    17    18   ar
    43    18    13   ar
    44    11     1   ar
    45    10     4   ar
    46    32    27    1
    47    41    33    1
    48    40    35    1
    49    19    23    1
    50    19    24    1
@<TRIPOS>MOLECULE
*****
 45 50 0 0 0
SMALL
GASTEIGER

@<TRIPOS>ATOM
      1 C         141.2661  138.6787  164.7027 C.ar    1  UNL1        0.1658
      2 C         140.1868  137.6418  164.8010 C.ar    1  UNL1        0.1363
      3 N         139.0065  137.6979  163.8771 N.ar    1  UNL1       -0.2392
      4 C         138.9056  138.7910  162.8548 C.ar    1  UNL1        0.0975
      5 C         137.7252  138.8471  161.9308 C.ar    1  UNL1        0.0255
      6 C         137.6243  139.9402  160.9086 C.ar    1  UNL1        0.0623
      7 C         138.7037  140.9771  160.8103 C.ar    1  UNL1        0.2611
      8 O         138.6028  142.0702  159.7880 O.2     1  UNL1       -0.2670
      9 N         139.8840  140.9210  161.7342 N.ar    1  UNL1       -0.2926
     10 C         139.9849  139.8279  162.7565 C.ar    1  UNL1        0.0832
     11 C         141.1652  139.7718  163.6805 C.ar    1  UNL1        0.0579
     12 O         142.4465  138.6226  165.6267 O.3     1  UNL1       -0.4519
     13 C         142.8841  141.6732  168.9058 C.ar    1  UNL1        0.1219
     14 C         142.8803  142.1100  167.4708 C.ar    1  UNL1        0.0230
     15 C         142.7344  141.0931  166.3777 C.ar    1  UNL1        0.0389
     16 C         142.5924  139.6395  166.7197 C.ar    1  UNL1        0.1455
     17 C         142.5961  139.2028  168.1548 C.ar    1  UNL1        0.0389
     18 C         142.7420  140.2197  169.2478 C.ar    1  UNL1        0.0230
     19 N         143.1758  143.7070  171.0918 N.3     1  UNL1       -0.2035
     20 S         143.0299  142.6901  169.9988 S.O2    1  UNL1        0.0572
     21 O         141.5887  142.4996  170.3683 O.2     1  UNL1       -0.1532
     22 O         144.4711  142.8806  169.6292 O.2     1  UNL1       -0.1532
     23 H         142.2849  143.8154  171.5765 H       1  UNL1        0.1442
     24 H         143.4547  144.6016  170.6889 H       1  UNL1        0.1442
     25 C         140.9634  141.9579  161.6359 C.3     1  UNL1        0.1264
     26 C         142.0761  141.7906  160.6441 C.3     1  UNL1        0.0970
     27 N         142.1799  140.5290  159.8392 N.3     1  UNL1       -0.2710
     28 C         142.8384  139.3163  160.4272 C.3     1  UNL1        0.0728
     29 C         142.9422  138.0548  159.6224 C.3     1  UNL1        0.0298
     30 C         142.3876  138.0059  158.2295 C.3     1  UNL1        0.1147
     31 C         141.7291  139.2186  157.6415 C.3     1  UNL1        0.0298
     32 C         141.6253  140.4802  158.4464 C.3     1  UNL1        0.0728
     33 C         142.4914  136.7444  157.4247 C.2     1  UNL1        0.3507
     34 N         143.3961  135.5842  157.7168 N.2     1  UNL1       -0.0351
     35 C         143.1727  134.5443  156.6591 C.2     1  UNL1        0.2317
     36 C         143.7840  133.1930  156.4350 C.2     1  UNL1        0.0537
     37 C         143.3525  132.3593  155.2651 C.2     1  UNL1        0.0714
     38 C         142.3096  132.8768  154.3193 C.2     1  UNL1       -0.0133
     39 C         141.6982  134.2282  154.5434 C.3     1  UNL1        0.1037
     40 C         142.1297  135.0619  155.7133 C.2     1  UNL1        0.2174
     41 N         141.7087  136.4216  156.1865 N.2     1  UNL1       -0.0389
     42 C         143.9638  131.0080  155.0410 C.3     1  UNL1        0.4184
     43 F         144.5752  129.6567  154.8169 F       1  UNL1       -0.1659
     44 F         145.2238  131.4665  155.7134 F       1  UNL1       -0.1659
     45 F         142.7038  130.5495  154.3686 F       1  UNL1       -0.1659
@<TRIPOS>BOND
     1    19    20    1
     2    20    21    2
     3    20    22    2
     4    20    13    1
     5    13    14   ar
     6    14    15   ar
     7    15    16   ar
     8    16    12    1
     9    12     1    1
    10     1     2   ar
    11     2     3   ar
    12     3     4   ar
    13     4     5   ar
    14     5     6   ar
    15     6     7   ar
    16     7     8    2
    17     7     9   ar
    18     9    25    1
    19    25    26    1
    20    26    27    1
    21    27    28    1
    22    28    29    1
    23    29    30    1
    24    30    33    1
    25    33    34    2
    26    34    35    1
    27    35    36    2
    28    36    37    1
    29    37    42    1
    30    42    43    1
    31    42    44    1
    32    42    45    1
    33    37    38    2
    34    38    39    1
    35    39    40    1
    36    40    41    2
    37    30    31    1
    38    31    32    1
    39     9    10   ar
    40    10    11   ar
    41    16    17   ar
    42    17    18   ar
    43    18    13   ar
    44    11     1   ar
    45    10     4   ar
    46    32    27    1
    47    41    33    1
    48    40    35    1
    49    19    23    1
    50    19    24    1
