@<TRIPOS>MOLECULE
*****
 32 35 0 0 0
SMALL
GASTEIGER

@<TRIPOS>ATOM
      1 C         139.7847  142.3872  165.6047 C.2     1  UNL1        0.2538
      2 O         139.5792  143.7159  166.2698 O.2     1  UNL1       -0.2695
      3 N         140.3258  141.2304  166.3915 N.am    1  UNL1       -0.2400
      4 C         140.5313  139.9017  165.7264 C.ar    1  UNL1        0.1482
      5 N         141.8740  139.5462  165.1601 N.ar    1  UNL1       -0.2279
      6 C         142.0795  138.2175  164.4951 C.ar    1  UNL1        0.1004
      7 C         140.9423  137.2443  164.3963 C.ar    1  UNL1        0.0216
      8 C         139.5995  137.5999  164.9626 C.ar    1  UNL1        0.0158
      9 C         139.3940  138.9286  165.6276 C.ar    1  UNL1        0.0896
     10 CL        138.0513  139.2842  166.1939 Cl      1  UNL1       -0.0793
     11 C         140.6614  141.4023  167.8434 C.3     1  UNL1        0.0972
     12 C         139.7471  140.8477  168.8952 C.3     1  UNL1        0.0231
     13 C         140.0827  141.0196  170.3470 C.3     1  UNL1        0.0188
     14 C         141.3326  141.7461  170.7470 C.3     1  UNL1        0.0687
     15 N         142.2469  142.3007  169.6951 N.3     1  UNL1       -0.2961
     16 C         141.9113  142.1288  168.2433 C.3     1  UNL1        0.0890
     17 H         143.1590  141.8677  169.8397 H       1  UNL1        0.1233
     18 C         138.7779  141.8715  161.2492 C.ar    1  UNL1        0.0192
     19 C         140.1857  142.1842  161.6616 C.ar    1  UNL1        0.0017
     20 C         140.5214  142.3561  163.1135 C.ar    1  UNL1        0.0046
     21 C         139.4491  142.2153  164.1529 C.ar    1  UNL1        0.0539
     22 C         138.0412  141.9026  163.7405 C.ar    1  UNL1        0.0046
     23 C         137.7056  141.7307  162.2887 C.ar    1  UNL1        0.0017
     24 C         138.2461  142.6849  157.4014 C.ar    1  UNL1        0.1511
     25 C         137.7710  141.3558  156.8938 C.ar    1  UNL1        0.1331
     26 N         137.6316  140.1986  157.8379 N.ar    1  UNL1       -0.2378
     27 C         137.9672  140.3705  159.2897 C.ar    1  UNL1        0.1180
     28 C         138.4423  141.6996  159.7974 C.ar    1  UNL1        0.1018
     29 N         138.5817  142.8568  158.8532 N.ar    1  UNL1       -0.2275
     30 C         139.5780  144.7472  156.5512 C.3     1  UNL1        0.1137
     31 N         138.3855  143.8422  156.4573 N.pl3   1  UNL1       -0.2885
     32 C         137.3325  144.0943  155.4193 C.3     1  UNL1        0.1137
@<TRIPOS>BOND
     1    30    31    1
     2    31    32    1
     3    31    24    1
     4    24    25   ar
     5    25    26   ar
     6    26    27   ar
     7    27    28   ar
     8    28    18    1
     9    18    19   ar
    10    19    20   ar
    11    20    21   ar
    12    21     1    1
    13     1     2    2
    14     1     3   am
    15     3     4    1
    16     4     5   ar
    17     5     6   ar
    18     6     7   ar
    19     7     8   ar
    20     8     9   ar
    21     9    10    1
    22    11     3    1
    23    11    12    1
    24    12    13    1
    25    13    14    1
    26    14    15    1
    27    15    16    1
    28    21    22   ar
    29    22    23   ar
    30    28    29   ar
    31    29    24   ar
    32    23    18   ar
    33     9     4   ar
    34    16    11    1
    35    15    17    1
@<TRIPOS>MOLECULE
*****
 32 35 0 0 0
SMALL
GASTEIGER

@<TRIPOS>ATOM
      1 C         140.1184  142.2079  166.2886 C.2     1  UNL1        0.2538
      2 O         139.9902  143.3733  167.2242 O.2     1  UNL1       -0.2695
      3 N         140.4026  140.8386  166.8308 N.am    1  UNL1       -0.2400
      4 C         140.5308  139.6731  165.8952 C.ar    1  UNL1        0.1482
      5 N         141.8769  139.2879  165.3570 N.ar    1  UNL1       -0.2279
      6 C         142.0051  138.1225  164.4214 C.ar    1  UNL1        0.1004
      7 C         140.7872  137.3423  164.0240 C.ar    1  UNL1        0.0216
      8 C         139.4410  137.7275  164.5621 C.ar    1  UNL1        0.0158
      9 C         139.3128  138.8929  165.4977 C.ar    1  UNL1        0.0896
     10 CL        137.9668  139.2782  166.0359 Cl      1  UNL1       -0.0793
     11 C         140.5587  140.6346  168.3087 C.3     1  UNL1        0.0972
     12 C         141.9048  140.7969  168.9501 C.3     1  UNL1        0.0231
     13 C         142.0609  140.5929  170.4280 C.3     1  UNL1        0.0188
     14 C         140.8707  140.2267  171.2643 C.3     1  UNL1        0.0687
     15 N         139.5246  140.0644  170.6228 N.3     1  UNL1       -0.2961
     16 C         139.3686  140.2684  169.1450 C.3     1  UNL1        0.0890
     17 H         138.8989  140.7281  171.0794 H       1  UNL1        0.1233
     18 C         139.6501  142.8197  161.8550 C.ar    1  UNL1        0.0192
     19 C         141.0171  142.8243  162.4725 C.ar    1  UNL1        0.0017
     20 C         141.1732  142.6203  163.9504 C.ar    1  UNL1        0.0046
     21 C         139.9623  142.4118  164.8107 C.ar    1  UNL1        0.0539
     22 C         138.5953  142.4072  164.1932 C.ar    1  UNL1        0.0046
     23 C         138.4392  142.6112  162.7154 C.ar    1  UNL1        0.0017
     24 C         139.9644  144.4182  158.2362 C.ar    1  UNL1        0.1511
     25 C         139.1819  143.4315  157.4215 C.ar    1  UNL1        0.1331
     26 N         138.5553  142.2408  158.0846 N.ar    1  UNL1       -0.2378
     27 C         138.7114  142.0368  159.5624 C.ar    1  UNL1        0.1180
     28 C         139.4940  143.0236  160.3771 C.ar    1  UNL1        0.1018
     29 N         140.1205  144.2143  159.7140 N.ar    1  UNL1       -0.2275
     30 C         139.7299  146.6124  156.8648 C.3     1  UNL1        0.1137
     31 N         140.5909  145.6090  157.5731 N.pl3   1  UNL1       -0.2885
     32 C         142.0785  145.7962  157.6183 C.3     1  UNL1        0.1137
@<TRIPOS>BOND
     1    30    31    1
     2    31    32    1
     3    31    24    1
     4    24    25   ar
     5    25    26   ar
     6    26    27   ar
     7    27    28   ar
     8    28    18    1
     9    18    19   ar
    10    19    20   ar
    11    20    21   ar
    12    21     1    1
    13     1     2    2
    14     1     3   am
    15     3     4    1
    16     4     5   ar
    17     5     6   ar
    18     6     7   ar
    19     7     8   ar
    20     8     9   ar
    21     9    10    1
    22    11     3    1
    23    11    12    1
    24    12    13    1
    25    13    14    1
    26    14    15    1
    27    15    16    1
    28    21    22   ar
    29    22    23   ar
    30    28    29   ar
    31    29    24   ar
    32    23    18   ar
    33     9     4   ar
    34    16    11    1
    35    15    17    1
@<TRIPOS>MOLECULE
*****
 32 35 0 0 0
SMALL
GASTEIGER

@<TRIPOS>ATOM
      1 C         142.5873  140.4236  165.5634 C.2     1  UNL1        0.2538
      2 O         142.7443  139.2666  166.5050 O.2     1  UNL1       -0.2695
      3 N         142.2896  141.7923  166.1001 N.am    1  UNL1       -0.2400
      4 C         142.1326  142.9493  165.1585 C.ar    1  UNL1        0.1482
      5 N         140.7723  143.3215  164.6478 N.ar    1  UNL1       -0.2279
      6 C         140.6154  144.4786  163.7062 C.ar    1  UNL1        0.1004
      7 C         141.8188  145.2635  163.2754 C.ar    1  UNL1        0.0216
      8 C         143.1792  144.8913  163.7861 C.ar    1  UNL1        0.0158
      9 C         143.3362  143.7342  164.7277 C.ar    1  UNL1        0.0896
     10 CL        144.6965  143.3620  165.2384 Cl      1  UNL1       -0.0793
     11 C         142.1487  142.0039  167.5785 C.3     1  UNL1        0.0972
     12 C         143.3584  142.3095  168.4110 C.3     1  UNL1        0.0231
     13 C         143.2175  142.5211  169.8893 C.3     1  UNL1        0.0188
     14 C         141.8669  142.4272  170.5350 C.3     1  UNL1        0.0687
     15 N         140.6572  142.1217  169.7025 N.3     1  UNL1       -0.2961
     16 C         140.7981  141.9100  168.2242 C.3     1  UNL1        0.0890
     17 H         140.0092  142.8993  169.8281 H       1  UNL1        0.1233
     18 C         143.0099  139.7889  161.1285 C.ar    1  UNL1        0.0192
     19 C         144.2266  140.0370  161.9699 C.ar    1  UNL1        0.0017
     20 C         144.0858  140.2486  163.4483 C.ar    1  UNL1        0.0046
     21 C         142.7282  140.2121  164.0852 C.ar    1  UNL1        0.0539
     22 C         141.5114  139.9639  163.2437 C.ar    1  UNL1        0.0046
     23 C         141.6523  139.7523  161.7654 C.ar    1  UNL1        0.0017
     24 C         142.7747  138.1062  157.5420 C.ar    1  UNL1        0.1511
     25 C         143.4322  139.1540  156.6936 C.ar    1  UNL1        0.1331
     26 N         143.9489  140.4134  157.3235 N.ar    1  UNL1       -0.2378
     27 C         143.8082  140.6251  158.8018 C.ar    1  UNL1        0.1180
     28 C         143.1507  139.5773  159.6502 C.ar    1  UNL1        0.1018
     29 N         142.6340  138.3178  159.0202 N.ar    1  UNL1       -0.2275
     30 C         143.0204  135.5641  157.0653 C.3     1  UNL1        0.1137
     31 N         142.2580  136.8467  156.9120 N.pl3   1  UNL1       -0.2885
     32 C         140.9790  136.8700  156.1288 C.3     1  UNL1        0.1137
@<TRIPOS>BOND
     1    30    31    1
     2    31    32    1
     3    31    24    1
     4    24    25   ar
     5    25    26   ar
     6    26    27   ar
     7    27    28   ar
     8    28    18    1
     9    18    19   ar
    10    19    20   ar
    11    20    21   ar
    12    21     1    1
    13     1     2    2
    14     1     3   am
    15     3     4    1
    16     4     5   ar
    17     5     6   ar
    18     6     7   ar
    19     7     8   ar
    20     8     9   ar
    21     9    10    1
    22    11     3    1
    23    11    12    1
    24    12    13    1
    25    13    14    1
    26    14    15    1
    27    15    16    1
    28    21    22   ar
    29    22    23   ar
    30    28    29   ar
    31    29    24   ar
    32    23    18   ar
    33     9     4   ar
    34    16    11    1
    35    15    17    1
@<TRIPOS>MOLECULE
*****
 32 35 0 0 0
SMALL
GASTEIGER

@<TRIPOS>ATOM
      1 C         142.4171  139.2673  166.3553 C.2     1  UNL1        0.2538
      2 O         143.3959  138.4927  167.1872 O.2     1  UNL1       -0.2695
      3 N         141.5379  140.2988  166.9979 N.am    1  UNL1       -0.2400
      4 C         140.5591  141.0734  166.1661 C.ar    1  UNL1        0.1482
      5 N         140.9247  142.4335  165.6499 N.ar    1  UNL1       -0.2279
      6 C         139.9459  143.2081  164.8180 C.ar    1  UNL1        0.1004
      7 C         138.6015  142.6225  164.5024 C.ar    1  UNL1        0.0216
      8 C         138.2358  141.2624  165.0185 C.ar    1  UNL1        0.0158
      9 C         139.2146  140.4878  165.8504 C.ar    1  UNL1        0.0896
     10 CL        138.8490  139.1278  166.3666 Cl      1  UNL1       -0.0793
     11 C         141.6376  140.5559  168.4724 C.3     1  UNL1        0.0972
     12 C         140.5580  140.0695  169.3932 C.3     1  UNL1        0.0231
     13 C         140.6577  140.3265  170.8676 C.3     1  UNL1        0.0188
     14 C         141.8369  141.0700  171.4212 C.3     1  UNL1        0.0687
     15 N         142.9165  141.5564  170.5005 N.3     1  UNL1       -0.2961
     16 C         142.8169  141.2993  169.0261 C.3     1  UNL1        0.0890
     17 H         143.7872  141.1287  170.8158 H       1  UNL1        0.1233
     18 C         142.1180  138.4962  161.9320 C.ar    1  UNL1        0.0192
     19 C         142.8853  139.6823  162.4363 C.ar    1  UNL1        0.0017
     20 C         142.9850  139.9394  163.9108 C.ar    1  UNL1        0.0046
     21 C         142.3174  139.0103  164.8809 C.ar    1  UNL1        0.0539
     22 C         141.5501  137.8241  164.3765 C.ar    1  UNL1        0.0046
     23 C         141.4504  137.5671  162.9021 C.ar    1  UNL1        0.0017
     24 C         140.7650  138.5374  158.2013 C.ar    1  UNL1        0.1511
     25 C         141.8188  137.7252  157.5087 C.ar    1  UNL1        0.1331
     26 N         142.9723  137.1700  158.2904 N.ar    1  UNL1       -0.2378
     27 C         143.0720  137.4270  159.7648 C.ar    1  UNL1        0.1180
     28 C         142.0183  138.2392  160.4575 C.ar    1  UNL1        0.1018
     29 N         140.8648  138.7944  159.6757 N.ar    1  UNL1       -0.2275
     30 C         139.3183  138.5723  156.0436 C.3     1  UNL1        0.1137
     31 N         139.6115  139.0926  157.4196 N.pl3   1  UNL1       -0.2885
     32 C         138.7512  140.1681  158.0137 C.3     1  UNL1        0.1137
@<TRIPOS>BOND
     1    30    31    1
     2    31    32    1
     3    31    24    1
     4    24    25   ar
     5    25    26   ar
     6    26    27   ar
     7    27    28   ar
     8    28    18    1
     9    18    19   ar
    10    19    20   ar
    11    20    21   ar
    12    21     1    1
    13     1     2    2
    14     1     3   am
    15     3     4    1
    16     4     5   ar
    17     5     6   ar
    18     6     7   ar
    19     7     8   ar
    20     8     9   ar
    21     9    10    1
    22    11     3    1
    23    11    12    1
    24    12    13    1
    25    13    14    1
    26    14    15    1
    27    15    16    1
    28    21    22   ar
    29    22    23   ar
    30    28    29   ar
    31    29    24   ar
    32    23    18   ar
    33     9     4   ar
    34    16    11    1
    35    15    17    1
@<TRIPOS>MOLECULE
*****
 32 35 0 0 0
SMALL
GASTEIGER

@<TRIPOS>ATOM
      1 C         142.4037  142.5011  166.3005 C.2     1  UNL1        0.2538
      2 O         143.5741  142.4916  167.2385 O.2     1  UNL1       -0.2695
      3 N         141.0091  142.3836  166.8401 N.am    1  UNL1       -0.2400
      4 C         139.8386  142.3931  165.9020 C.ar    1  UNL1        0.1482
      5 N         139.2314  143.6961  165.4736 N.ar    1  UNL1       -0.2279
      6 C         138.0610  143.7056  164.5355 C.ar    1  UNL1        0.1004
      7 C         137.4977  142.4122  164.0260 C.ar    1  UNL1        0.0216
      8 C         138.1048  141.1091  164.4544 C.ar    1  UNL1        0.0158
      9 C         139.2753  141.0996  165.3925 C.ar    1  UNL1        0.0896
     10 CL        139.8825  139.7967  165.8210 Cl      1  UNL1       -0.0793
     11 C         140.7849  142.2566  168.3178 C.3     1  UNL1        0.0972
     12 C         140.8899  140.9147  168.9798 C.3     1  UNL1        0.0231
     13 C         140.6657  140.7878  170.4574 C.3     1  UNL1        0.0188
     14 C         140.3365  142.0027  171.2732 C.3     1  UNL1        0.0687
     15 N         140.2315  143.3446  170.6113 N.3     1  UNL1       -0.2961
     16 C         140.4557  143.4716  169.1336 C.3     1  UNL1        0.0890
     17 H         140.9138  143.9514  171.0658 H       1  UNL1        0.1233
     18 C         143.0761  142.8820  161.8673 C.ar    1  UNL1        0.0192
     19 C         142.9523  144.1129  162.7156 C.ar    1  UNL1        0.0017
     20 C         142.7282  143.9860  164.1934 C.ar    1  UNL1        0.0046
     21 C         142.6278  142.6281  164.8228 C.ar    1  UNL1        0.0539
     22 C         142.7515  141.3972  163.9744 C.ar    1  UNL1        0.0046
     23 C         142.9756  141.5242  162.4967 C.ar    1  UNL1        0.0017
     24 C         142.6880  144.0846  158.1052 C.ar    1  UNL1        0.1511
     25 C         143.7484  143.2630  157.4342 C.ar    1  UNL1        0.1331
     26 N         144.5847  142.3143  158.2408 N.ar    1  UNL1       -0.2378
     27 C         144.3606  142.1873  159.7185 C.ar    1  UNL1        0.1180
     28 C         143.3002  143.0090  160.3896 C.ar    1  UNL1        0.1018
     29 N         142.4639  143.9576  159.5829 N.ar    1  UNL1       -0.2275
     30 C         140.7084  145.7594  157.9432 C.3     1  UNL1        0.1137
     31 N         141.8517  145.0332  157.2986 N.pl3   1  UNL1       -0.2885
     32 C         142.1586  145.2557  155.8473 C.3     1  UNL1        0.1137
@<TRIPOS>BOND
     1    30    31    1
     2    31    32    1
     3    31    24    1
     4    24    25   ar
     5    25    26   ar
     6    26    27   ar
     7    27    28   ar
     8    28    18    1
     9    18    19   ar
    10    19    20   ar
    11    20    21   ar
    12    21     1    1
    13     1     2    2
    14     1     3   am
    15     3     4    1
    16     4     5   ar
    17     5     6   ar
    18     6     7   ar
    19     7     8   ar
    20     8     9   ar
    21     9    10    1
    22    11     3    1
    23    11    12    1
    24    12    13    1
    25    13    14    1
    26    14    15    1
    27    15    16    1
    28    21    22   ar
    29    22    23   ar
    30    28    29   ar
    31    29    24   ar
    32    23    18   ar
    33     9     4   ar
    34    16    11    1
    35    15    17    1
@<TRIPOS>MOLECULE
*****
 32 35 0 0 0
SMALL
GASTEIGER

@<TRIPOS>ATOM
      1 C         142.1872  142.4150  165.6538 C.2     1  UNL1        0.2538
      2 O         143.3449  142.5881  166.5918 O.2     1  UNL1       -0.2695
      3 N         140.8284  142.0798  166.1934 N.am    1  UNL1       -0.2400
      4 C         139.6707  141.9066  165.2554 C.ar    1  UNL1        0.1482
      5 N         139.3418  140.5475  164.7128 N.ar    1  UNL1       -0.2279
      6 C         138.1842  140.3744  163.7748 C.ar    1  UNL1        0.1004
      7 C         137.3554  141.5604  163.3794 C.ar    1  UNL1        0.0216
      8 C         137.6842  142.9197  163.9220 C.ar    1  UNL1        0.0158
      9 C         138.8419  143.0928  164.8600 C.ar    1  UNL1        0.0896
     10 CL        139.1708  144.4519  165.4026 Cl      1  UNL1       -0.0793
     11 C         140.6272  141.9176  167.6710 C.3     1  UNL1        0.0972
     12 C         140.4529  143.1268  168.5413 C.3     1  UNL1        0.0231
     13 C         140.2517  142.9646  170.0189 C.3     1  UNL1        0.0188
     14 C         140.2248  141.5933  170.6261 C.3     1  UNL1        0.0687
     15 N         140.3991  140.3841  169.7558 N.3     1  UNL1       -0.2961
     16 C         140.6003  140.5463  168.2782 C.3     1  UNL1        0.0890
     17 H         139.5645  139.8105  169.8781 H       1  UNL1        0.1233
     18 C         142.7907  142.9013  161.2211 C.ar    1  UNL1        0.0192
     19 C         142.4574  144.0937  162.0678 C.ar    1  UNL1        0.0017
     20 C         142.2562  143.9316  163.5455 C.ar    1  UNL1        0.0046
     21 C         142.3884  142.5771  164.1763 C.ar    1  UNL1        0.0539
     22 C         142.7217  141.3847  163.3294 C.ar    1  UNL1        0.0046
     23 C         142.9228  141.5468  161.8518 C.ar    1  UNL1        0.0017
     24 C         144.3341  142.5306  157.5837 C.ar    1  UNL1        0.1511
     25 C         143.3943  143.3874  156.7883 C.ar    1  UNL1        0.1331
     26 N         142.2532  144.0821  157.4705 N.ar    1  UNL1       -0.2378
     27 C         142.0520  143.9201  158.9481 C.ar    1  UNL1        0.1180
     28 C         142.9919  143.0633  159.7434 C.ar    1  UNL1        0.1018
     29 N         144.1329  142.3686  159.0612 N.ar    1  UNL1       -0.2275
     30 C         145.2612  140.4990  156.2559 C.3     1  UNL1        0.1137
     31 N         145.4751  141.8359  156.9015 N.pl3   1  UNL1       -0.2885
     32 C         146.8302  142.4782  156.8648 C.3     1  UNL1        0.1137
@<TRIPOS>BOND
     1    30    31    1
     2    31    32    1
     3    31    24    1
     4    24    25   ar
     5    25    26   ar
     6    26    27   ar
     7    27    28   ar
     8    28    18    1
     9    18    19   ar
    10    19    20   ar
    11    20    21   ar
    12    21     1    1
    13     1     2    2
    14     1     3   am
    15     3     4    1
    16     4     5   ar
    17     5     6   ar
    18     6     7   ar
    19     7     8   ar
    20     8     9   ar
    21     9    10    1
    22    11     3    1
    23    11    12    1
    24    12    13    1
    25    13    14    1
    26    14    15    1
    27    15    16    1
    28    21    22   ar
    29    22    23   ar
    30    28    29   ar
    31    29    24   ar
    32    23    18   ar
    33     9     4   ar
    34    16    11    1
    35    15    17    1
@<TRIPOS>MOLECULE
*****
 32 35 0 0 0
SMALL
GASTEIGER

@<TRIPOS>ATOM
      1 C         142.1632  142.3950  165.8648 C.2     1  UNL1        0.2538
      2 O         143.2913  142.5149  166.8461 O.2     1  UNL1       -0.2695
      3 N         140.7639  142.1677  166.3547 N.am    1  UNL1       -0.2400
      4 C         139.6358  142.0478  165.3734 C.ar    1  UNL1        0.1482
      5 N         139.2361  140.6997  164.8512 N.ar    1  UNL1       -0.2279
      6 C         138.1080  140.5798  163.8698 C.ar    1  UNL1        0.1004
      7 C         137.3796  141.8080  163.4106 C.ar    1  UNL1        0.0216
      8 C         137.7793  143.1562  163.9328 C.ar    1  UNL1        0.0158
      9 C         138.9074  143.2761  164.9142 C.ar    1  UNL1        0.0896
     10 CL        139.3071  144.6243  165.4364 Cl      1  UNL1       -0.0793
     11 C         140.4925  142.0604  167.8261 C.3     1  UNL1        0.0972
     12 C         140.4412  143.2983  168.6716 C.3     1  UNL1        0.0231
     13 C         140.1699  143.1909  170.1429 C.3     1  UNL1        0.0188
     14 C         139.9499  141.8456  170.7687 C.3     1  UNL1        0.0687
     15 N         140.0012  140.6076  169.9233 N.3     1  UNL1       -0.2961
     16 C         140.2725  140.7150  168.4520 C.3     1  UNL1        0.0890
     17 H         139.0975  140.1452  170.0231 H       1  UNL1        0.1233
     18 C         142.9771  142.7170  161.4507 C.ar    1  UNL1        0.0192
     19 C         142.9149  141.3689  162.1054 C.ar    1  UNL1        0.0017
     20 C         142.6436  141.2615  163.5768 C.ar    1  UNL1        0.0046
     21 C         142.4345  142.5023  164.3934 C.ar    1  UNL1        0.0539
     22 C         142.4967  143.8505  163.7386 C.ar    1  UNL1        0.0046
     23 C         142.7680  143.9578  162.2673 C.ar    1  UNL1        0.0017
     24 C         142.8071  143.9658  157.6875 C.ar    1  UNL1        0.1511
     25 C         143.7909  143.0393  157.0367 C.ar    1  UNL1        0.1331
     26 N         144.5034  142.0053  157.8571 N.ar    1  UNL1       -0.2378
     27 C         144.2322  141.8979  159.3285 C.ar    1  UNL1        0.1180
     28 C         143.2484  142.8244  159.9793 C.ar    1  UNL1        0.1018
     29 N         142.5358  143.8584  159.1588 N.ar    1  UNL1       -0.2275
     30 C         141.1192  145.9338  157.5199 C.3     1  UNL1        0.1137
     31 N         142.0945  144.9998  156.8670 N.pl3   1  UNL1       -0.2885
     32 C         142.3572  145.0997  155.3936 C.3     1  UNL1        0.1137
@<TRIPOS>BOND
     1    30    31    1
     2    31    32    1
     3    31    24    1
     4    24    25   ar
     5    25    26   ar
     6    26    27   ar
     7    27    28   ar
     8    28    18    1
     9    18    19   ar
    10    19    20   ar
    11    20    21   ar
    12    21     1    1
    13     1     2    2
    14     1     3   am
    15     3     4    1
    16     4     5   ar
    17     5     6   ar
    18     6     7   ar
    19     7     8   ar
    20     8     9   ar
    21     9    10    1
    22    11     3    1
    23    11    12    1
    24    12    13    1
    25    13    14    1
    26    14    15    1
    27    15    16    1
    28    21    22   ar
    29    22    23   ar
    30    28    29   ar
    31    29    24   ar
    32    23    18   ar
    33     9     4   ar
    34    16    11    1
    35    15    17    1
@<TRIPOS>MOLECULE
*****
 32 35 0 0 0
SMALL
GASTEIGER

@<TRIPOS>ATOM
      1 C         141.0024  142.7842  165.7427 C.2     1  UNL1        0.2538
      2 O         140.0111  143.2686  166.7590 O.2     1  UNL1       -0.2695
      3 N         142.1649  141.9393  166.1723 N.am    1  UNL1       -0.2400
      4 C         143.1561  141.4550  165.1560 C.ar    1  UNL1        0.1482
      5 N         142.9661  140.1194  164.5001 N.ar    1  UNL1       -0.2279
      6 C         143.9574  139.6351  163.4839 C.ar    1  UNL1        0.1004
      7 C         145.1386  140.4863  163.1234 C.ar    1  UNL1        0.0216
      8 C         145.3287  141.8219  163.7792 C.ar    1  UNL1        0.0158
      9 C         144.3375  142.3062  164.7955 C.ar    1  UNL1        0.0896
     10 CL        144.5275  143.6418  165.4514 Cl      1  UNL1       -0.0793
     11 C         142.3362  141.5786  167.6182 C.3     1  UNL1        0.0972
     12 C         143.2349  142.3997  168.4946 C.3     1  UNL1        0.0231
     13 C         143.4061  142.0391  169.9404 C.3     1  UNL1        0.0188
     14 C         142.6787  140.8573  170.5099 C.3     1  UNL1        0.0687
     15 N         141.7800  140.0362  169.6335 N.3     1  UNL1       -0.2961
     16 C         141.6088  140.3969  168.1877 C.3     1  UNL1        0.0890
     17 H         140.8519  140.0635  170.0557 H       1  UNL1        0.1233
     18 C         140.4886  143.8661  161.4050 C.ar    1  UNL1        0.0192
     19 C         139.9797  142.5506  161.9152 C.ar    1  UNL1        0.0017
     20 C         140.1509  142.1899  163.3611 C.ar    1  UNL1        0.0046
     21 C         140.8311  143.1448  164.2968 C.ar    1  UNL1        0.0539
     22 C         141.3400  144.4604  163.7865 C.ar    1  UNL1        0.0046
     23 C         141.1688  144.8210  162.3407 C.ar    1  UNL1        0.0017
     24 C         139.3466  143.6978  157.6079 C.ar    1  UNL1        0.1511
     25 C         139.9748  144.9480  157.0673 C.ar    1  UNL1        0.1331
     26 N         140.7744  145.8376  157.9726 N.ar    1  UNL1       -0.2378
     27 C         140.9456  145.4769  159.4184 C.ar    1  UNL1        0.1180
     28 C         140.3174  144.2268  159.9590 C.ar    1  UNL1        0.1018
     29 N         139.5178  143.3372  159.0538 N.ar    1  UNL1       -0.2275
     30 C         139.0100  141.4085  156.4266 C.3     1  UNL1        0.1137
     31 N         138.5471  142.8083  156.7027 N.pl3   1  UNL1       -0.2885
     32 C         137.2846  143.3185  156.0736 C.3     1  UNL1        0.1137
@<TRIPOS>BOND
     1    30    31    1
     2    31    32    1
     3    31    24    1
     4    24    25   ar
     5    25    26   ar
     6    26    27   ar
     7    27    28   ar
     8    28    18    1
     9    18    19   ar
    10    19    20   ar
    11    20    21   ar
    12    21     1    1
    13     1     2    2
    14     1     3   am
    15     3     4    1
    16     4     5   ar
    17     5     6   ar
    18     6     7   ar
    19     7     8   ar
    20     8     9   ar
    21     9    10    1
    22    11     3    1
    23    11    12    1
    24    12    13    1
    25    13    14    1
    26    14    15    1
    27    15    16    1
    28    21    22   ar
    29    22    23   ar
    30    28    29   ar
    31    29    24   ar
    32    23    18   ar
    33     9     4   ar
    34    16    11    1
    35    15    17    1
@<TRIPOS>MOLECULE
*****
 32 35 0 0 0
SMALL
GASTEIGER

@<TRIPOS>ATOM
      1 C         142.5877  140.4163  165.6992 C.2     1  UNL1        0.2538
      2 O         142.7550  139.2841  166.6688 O.2     1  UNL1       -0.2695
      3 N         142.3051  141.8003  166.2038 N.am    1  UNL1       -0.2400
      4 C         142.1378  142.9325  165.2342 C.ar    1  UNL1        0.1482
      5 N         140.7687  143.3114  164.7526 N.ar    1  UNL1       -0.2279
      6 C         140.6013  144.4436  163.7831 C.ar    1  UNL1        0.1004
      7 C         141.8031  145.1969  163.2950 C.ar    1  UNL1        0.0216
      8 C         143.1723  144.8180  163.7766 C.ar    1  UNL1        0.0158
      9 C         143.3397  143.6858  164.7462 C.ar    1  UNL1        0.0896
     10 CL        144.7088  143.3069  165.2277 Cl      1  UNL1       -0.0793
     11 C         142.1898  142.0521  167.6781 C.3     1  UNL1        0.0972
     12 C         143.4246  142.2789  168.4990 C.3     1  UNL1        0.0231
     13 C         143.3093  142.5307  169.9731 C.3     1  UNL1        0.0188
     14 C         141.9592  142.5558  170.6264 C.3     1  UNL1        0.0687
     15 N         140.7245  142.3290  169.8055 N.3     1  UNL1       -0.2961
     16 C         140.8398  142.0772  168.3313 C.3     1  UNL1        0.0890
     17 H         140.1399  143.1573  169.9179 H       1  UNL1        0.1233
     18 C         142.9335  139.6609  161.2766 C.ar    1  UNL1        0.0192
     19 C         141.5830  139.6945  161.9283 C.ar    1  UNL1        0.0017
     20 C         141.4677  139.9463  163.4026 C.ar    1  UNL1        0.0046
     21 C         142.7030  140.1645  164.2250 C.ar    1  UNL1        0.0539
     22 C         144.0536  140.1309  163.5732 C.ar    1  UNL1        0.0046
     23 C         144.1688  139.8791  162.0990 C.ar    1  UNL1        0.0017
     24 C         143.8586  140.1548  157.4490 C.ar    1  UNL1        0.1511
     25 C         143.2795  138.9057  156.8539 C.ar    1  UNL1        0.1331
     26 N         142.5851  137.9082  157.7330 N.ar    1  UNL1       -0.2378
     27 C         142.4697  138.1600  159.2072 C.ar    1  UNL1        0.1180
     28 C         143.0488  139.4091  159.8023 C.ar    1  UNL1        0.1018
     29 N         143.7433  140.4066  158.9232 N.ar    1  UNL1       -0.2275
     30 C         144.0563  142.5660  156.5017 C.3     1  UNL1        0.1137
     31 N         144.5530  141.1523  156.5698 N.pl3   1  UNL1       -0.2885
     32 C         145.7442  140.7360  155.7588 C.3     1  UNL1        0.1137
@<TRIPOS>BOND
     1    30    31    1
     2    31    32    1
     3    31    24    1
     4    24    25   ar
     5    25    26   ar
     6    26    27   ar
     7    27    28   ar
     8    28    18    1
     9    18    19   ar
    10    19    20   ar
    11    20    21   ar
    12    21     1    1
    13     1     2    2
    14     1     3   am
    15     3     4    1
    16     4     5   ar
    17     5     6   ar
    18     6     7   ar
    19     7     8   ar
    20     8     9   ar
    21     9    10    1
    22    11     3    1
    23    11    12    1
    24    12    13    1
    25    13    14    1
    26    14    15    1
    27    15    16    1
    28    21    22   ar
    29    22    23   ar
    30    28    29   ar
    31    29    24   ar
    32    23    18   ar
    33     9     4   ar
    34    16    11    1
    35    15    17    1
