@<TRIPOS>MOLECULE
*****
 23 25 0 0 0
SMALL
GASTEIGER

@<TRIPOS>ATOM
      1 C         139.9421  140.5068  165.8145 C.ar    1  UNL1       -0.0144
      2 C         139.0631  139.5808  165.0272 C.ar    1  UNL1        0.0051
      3 S         138.0723  140.4143  164.2699 S.2     1  UNL1       -0.0915
      4 C         138.3389  141.8555  164.5892 C.ar    1  UNL1        0.0288
      5 C         137.6788  143.1231  164.1340 C.ar    1  UNL1        0.0065
      6 C         138.1742  144.4479  164.6334 C.ar    1  UNL1        0.0005
      7 C         139.3298  144.5051  165.5881 C.ar    1  UNL1        0.0000
      8 C         139.9900  143.2374  166.0432 C.ar    1  UNL1        0.0002
      9 C         139.4945  141.9127  165.5438 C.ar    1  UNL1        0.0025
     10 C         141.0705  140.0986  166.7145 C.3     1  UNL1        0.0624
     11 C         142.2306  139.3263  166.1597 C.3     1  UNL1        0.0110
     12 C         142.9704  142.1580  167.7869 C.3     1  UNL1        0.0323
     13 C         141.9889  141.4924  168.7055 C.ar    1  UNL1       -0.0079
     14 C         141.9573  141.8565  170.1603 C.ar    1  UNL1       -0.0015
     15 C         140.9759  141.1910  171.0789 C.ar    1  UNL1        0.0203
     16 C         140.0259  140.1614  170.5427 C.ar    1  UNL1        0.0984
     17 N         140.0575  139.7973  169.0879 N.ar    1  UNL1       -0.2482
     18 C         141.0390  140.4628  168.1692 C.ar    1  UNL1        0.0587
     19 C         139.1582  138.0840  165.0016 C.3     1  UNL1        0.0499
     20 C         139.0454  137.3474  163.6998 C.3     1  UNL1        0.0774
     21 N         139.9577  137.6937  162.5606 N.3     1  UNL1       -0.2700
     22 C         139.3831  138.1318  161.2461 C.3     1  UNL1        0.0897
     23 C         141.4446  137.6019  162.7359 C.3     1  UNL1        0.0897
@<TRIPOS>BOND
     1    12    13    1
     2    13    14   ar
     3    14    15   ar
     4    15    16   ar
     5    16    17   ar
     6    17    18   ar
     7    18    10    1
     8    10    11    1
     9    10     1    1
    10     1     2   ar
    11     2    19    1
    12    19    20    1
    13    20    21    1
    14    21    22    1
    15    21    23    1
    16     2     3   ar
    17     3     4   ar
    18     4     5   ar
    19     5     6   ar
    20     6     7   ar
    21     7     8   ar
    22     8     9   ar
    23    18    13   ar
    24     9     1   ar
    25     9     4   ar
@<TRIPOS>MOLECULE
*****
 23 25 0 0 0
SMALL
GASTEIGER

@<TRIPOS>ATOM
      1 C         140.4265  140.8744  165.5871 C.ar    1  UNL1       -0.0144
      2 C         139.6087  139.7570  165.0103 C.ar    1  UNL1        0.0051
      3 S         138.3550  140.3483  164.4370 S.2     1  UNL1       -0.0915
      4 C         138.3980  141.8311  164.6595 C.ar    1  UNL1        0.0288
      5 C         137.4367  142.9272  164.3067 C.ar    1  UNL1        0.0065
      6 C         137.7557  144.3484  164.6647 C.ar    1  UNL1        0.0005
      7 C         139.0360  144.6736  165.3755 C.ar    1  UNL1        0.0000
      8 C         139.9972  143.5775  165.7283 C.ar    1  UNL1        0.0002
      9 C         139.6782  142.1562  165.3703 C.ar    1  UNL1        0.0025
     10 C         141.7586  140.7345  166.2623 C.3     1  UNL1        0.0624
     11 C         141.8276  140.4191  167.7272 C.3     1  UNL1        0.0110
     12 C         143.4000  138.3398  165.5061 C.3     1  UNL1        0.0323
     13 C         143.8424  139.7127  165.0945 C.ar    1  UNL1       -0.0079
     14 C         145.1056  139.8883  164.3049 C.ar    1  UNL1       -0.0015
     15 C         145.5482  141.2611  163.8933 C.ar    1  UNL1        0.0203
     16 C         144.7275  142.4585  164.2714 C.ar    1  UNL1        0.0984
     17 N         143.4644  142.2829  165.0610 N.ar    1  UNL1       -0.2482
     18 C         143.0218  140.9100  165.4726 C.ar    1  UNL1        0.0587
     19 C         139.9795  138.3036  165.0073 C.3     1  UNL1        0.0499
     20 C         139.6282  137.4423  163.8306 C.3     1  UNL1        0.0774
     21 N         140.1698  137.7725  162.4713 N.3     1  UNL1       -0.2700
     22 C         139.2306  138.1106  161.3516 C.3     1  UNL1        0.0897
     23 C         141.6505  137.7645  162.2317 C.3     1  UNL1        0.0897
@<TRIPOS>BOND
     1    12    13    1
     2    13    14   ar
     3    14    15   ar
     4    15    16   ar
     5    16    17   ar
     6    17    18   ar
     7    18    10    1
     8    10    11    1
     9    10     1    1
    10     1     2   ar
    11     2    19    1
    12    19    20    1
    13    20    21    1
    14    21    22    1
    15    21    23    1
    16     2     3   ar
    17     3     4   ar
    18     4     5   ar
    19     5     6   ar
    20     6     7   ar
    21     7     8   ar
    22     8     9   ar
    23    18    13   ar
    24     9     1   ar
    25     9     4   ar
@<TRIPOS>MOLECULE
*****
 23 25 0 0 0
SMALL
GASTEIGER

@<TRIPOS>ATOM
      1 C         140.5595  142.3213  165.3585 C.ar    1  UNL1       -0.0144
      2 C         139.4271  142.9825  164.6302 C.ar    1  UNL1        0.0051
      3 S         139.9775  144.1707  163.8985 S.2     1  UNL1       -0.0915
      4 C         141.4501  144.2438  164.1746 C.ar    1  UNL1        0.0288
      5 C         142.5099  145.2034  163.7210 C.ar    1  UNL1        0.0065
      6 C         143.9294  145.0201  164.1696 C.ar    1  UNL1        0.0005
      7 C         144.2891  143.8771  165.0720 C.ar    1  UNL1        0.0000
      8 C         143.2293  142.9174  165.5256 C.ar    1  UNL1        0.0002
      9 C         141.8098  143.1008  165.0769 C.ar    1  UNL1        0.0025
     10 C         140.4593  141.0957  166.2175 C.3     1  UNL1        0.0624
     11 C         140.1822  141.2295  167.6857 C.3     1  UNL1        0.0110
     12 C         138.1256  139.2194  166.0333 C.3     1  UNL1        0.0323
     13 C         139.4693  138.7983  165.5165 C.ar    1  UNL1       -0.0079
     14 C         139.6462  137.4389  164.9075 C.ar    1  UNL1       -0.0015
     15 C         140.9898  137.0177  164.3906 C.ar    1  UNL1        0.0203
     16 C         142.1566  137.9558  164.4826 C.ar    1  UNL1        0.0984
     17 N         141.9798  139.3152  165.0916 N.ar    1  UNL1       -0.2482
     18 C         140.6361  139.7364  165.6086 C.ar    1  UNL1        0.0587
     19 C         137.9956  142.5343  164.6331 C.3     1  UNL1        0.0499
     20 C         137.2586  142.3700  163.3370 C.3     1  UNL1        0.0774
     21 N         137.8520  141.5412  162.2366 N.3     1  UNL1       -0.2700
     22 C         138.3640  142.2032  160.9918 C.3     1  UNL1        0.0897
     23 C         137.9334  140.0504  162.3810 C.3     1  UNL1        0.0897
@<TRIPOS>BOND
     1    12    13    1
     2    13    14   ar
     3    14    15   ar
     4    15    16   ar
     5    16    17   ar
     6    17    18   ar
     7    18    10    1
     8    10    11    1
     9    10     1    1
    10     1     2   ar
    11     2    19    1
    12    19    20    1
    13    20    21    1
    14    21    22    1
    15    21    23    1
    16     2     3   ar
    17     3     4   ar
    18     4     5   ar
    19     5     6   ar
    20     6     7   ar
    21     7     8   ar
    22     8     9   ar
    23    18    13   ar
    24     9     1   ar
    25     9     4   ar
@<TRIPOS>MOLECULE
*****
 23 25 0 0 0
SMALL
GASTEIGER

@<TRIPOS>ATOM
      1 C         140.3183  139.4159  166.0225 C.ar    1  UNL1       -0.0144
      2 C         141.5343  138.6561  165.5823 C.ar    1  UNL1        0.0051
      3 S         142.7312  139.2742  166.2422 S.2     1  UNL1       -0.0915
      4 C         142.2548  140.4161  167.0903 C.ar    1  UNL1        0.0288
      5 C         142.9863  141.3874  167.9686 C.ar    1  UNL1        0.0065
      6 C         142.2265  142.4463  168.7111 C.ar    1  UNL1        0.0005
      7 C         140.7352  142.5338  168.5753 C.ar    1  UNL1        0.0000
      8 C         140.0038  141.5625  167.6970 C.ar    1  UNL1        0.0002
      9 C         140.7635  140.5037  166.9545 C.ar    1  UNL1        0.0025
     10 C         138.9050  139.1370  165.6042 C.3     1  UNL1        0.0624
     11 C         137.9088  138.6421  166.6106 C.3     1  UNL1        0.0110
     12 C         138.0928  141.8722  164.6772 C.3     1  UNL1        0.0323
     13 C         138.0818  140.7205  163.7162 C.ar    1  UNL1       -0.0079
     14 C         137.6647  140.9365  162.2916 C.ar    1  UNL1       -0.0015
     15 C         137.6537  139.7849  161.3306 C.ar    1  UNL1        0.0203
     16 C         138.0598  138.4173  161.7940 C.ar    1  UNL1        0.0984
     17 N         138.4769  138.2014  163.2186 N.ar    1  UNL1       -0.2482
     18 C         138.4879  139.3530  164.1798 C.ar    1  UNL1        0.0587
     19 C         141.5507  137.4839  164.6465 C.3     1  UNL1        0.0499
     20 C         141.7498  137.7011  163.1757 C.3     1  UNL1        0.0774
     21 N         142.4149  138.9531  162.6857 N.3     1  UNL1       -0.2700
     22 C         143.9116  139.0336  162.6271 C.3     1  UNL1        0.0897
     23 C         141.5833  140.1246  162.2544 C.3     1  UNL1        0.0897
@<TRIPOS>BOND
     1    12    13    1
     2    13    14   ar
     3    14    15   ar
     4    15    16   ar
     5    16    17   ar
     6    17    18   ar
     7    18    10    1
     8    10    11    1
     9    10     1    1
    10     1     2   ar
    11     2    19    1
    12    19    20    1
    13    20    21    1
    14    21    22    1
    15    21    23    1
    16     2     3   ar
    17     3     4   ar
    18     4     5   ar
    19     5     6   ar
    20     6     7   ar
    21     7     8   ar
    22     8     9   ar
    23    18    13   ar
    24     9     1   ar
    25     9     4   ar
@<TRIPOS>MOLECULE
*****
 23 25 0 0 0
SMALL
GASTEIGER

@<TRIPOS>ATOM
      1 C         142.1359  140.4572  165.5398 C.ar    1  UNL1       -0.0144
      2 C         143.0991  139.5527  164.8298 C.ar    1  UNL1        0.0051
      3 S         142.3784  138.2809  164.4933 S.2     1  UNL1       -0.0915
      4 C         140.9699  138.3995  164.9953 C.ar    1  UNL1        0.0288
      5 C         139.8044  137.4564  164.9470 C.ar    1  UNL1        0.0065
      6 C         138.4891  137.8585  165.5455 C.ar    1  UNL1        0.0005
      7 C         138.3393  139.2035  166.1923 C.ar    1  UNL1        0.0000
      8 C         139.5047  140.1466  166.2406 C.ar    1  UNL1        0.0002
      9 C         140.8200  139.7445  165.6421 C.ar    1  UNL1        0.0025
     10 C         142.4360  141.8330  166.0568 C.3     1  UNL1        0.0624
     11 C         142.9435  142.0140  167.4568 C.3     1  UNL1        0.0110
     12 C         144.7815  143.5072  165.2227 C.3     1  UNL1        0.0323
     13 C         143.4012  143.8649  164.7570 C.ar    1  UNL1       -0.0079
     14 C         143.1937  145.0597  163.8741 C.ar    1  UNL1       -0.0015
     15 C         141.8135  145.4174  163.4083 C.ar    1  UNL1        0.0203
     16 C         140.6407  144.5803  163.8253 C.ar    1  UNL1        0.0984
     17 N         140.8482  143.3855  164.7082 N.ar    1  UNL1       -0.2482
     18 C         142.2285  143.0278  165.1740 C.ar    1  UNL1        0.0587
     19 C         144.5314  139.8651  164.5121 C.3     1  UNL1        0.0499
     20 C         144.8779  140.5892  163.2450 C.3     1  UNL1        0.0774
     21 N         143.9657  140.5013  162.0575 N.3     1  UNL1       -0.2700
     22 C         142.9794  141.5985  161.7865 C.3     1  UNL1        0.0897
     23 C         144.0399  139.3162  161.1409 C.3     1  UNL1        0.0897
@<TRIPOS>BOND
     1    12    13    1
     2    13    14   ar
     3    14    15   ar
     4    15    16   ar
     5    16    17   ar
     6    17    18   ar
     7    18    10    1
     8    10    11    1
     9    10     1    1
    10     1     2   ar
    11     2    19    1
    12    19    20    1
    13    20    21    1
    14    21    22    1
    15    21    23    1
    16     2     3   ar
    17     3     4   ar
    18     4     5   ar
    19     5     6   ar
    20     6     7   ar
    21     7     8   ar
    22     8     9   ar
    23    18    13   ar
    24     9     1   ar
    25     9     4   ar
@<TRIPOS>MOLECULE
*****
 23 25 0 0 0
SMALL
GASTEIGER

@<TRIPOS>ATOM
      1 C         141.4164  141.3865  165.0780 C.ar    1  UNL1       -0.0144
      2 C         141.1402  142.8608  165.0941 C.ar    1  UNL1        0.0051
      3 S         142.4042  143.5733  164.7140 S.2     1  UNL1       -0.0915
      4 C         143.4616  142.5394  164.4629 C.ar    1  UNL1        0.0288
      5 C         144.9015  142.6541  164.0584 C.ar    1  UNL1        0.0065
      6 C         145.7308  141.4172  163.8790 C.ar    1  UNL1        0.0005
      7 C         145.1203  140.0657  164.1039 C.ar    1  UNL1        0.0000
      8 C         143.6805  139.9510  164.5084 C.ar    1  UNL1        0.0002
      9 C         142.8511  141.1879  164.6878 C.ar    1  UNL1        0.0025
     10 C         140.4309  140.3013  165.3961 C.3     1  UNL1        0.0624
     11 C         140.2213  139.8718  166.8180 C.3     1  UNL1        0.0110
     12 C         141.0228  137.4623  164.6282 C.3     1  UNL1        0.0323
     13 C         139.9510  138.2261  163.9085 C.ar    1  UNL1       -0.0079
     14 C         139.1751  137.5704  162.8049 C.ar    1  UNL1       -0.0015
     15 C         138.1034  138.3341  162.0852 C.ar    1  UNL1        0.0203
     16 C         137.8074  139.7536  162.4692 C.ar    1  UNL1        0.0984
     17 N         138.5833  140.4093  163.5728 N.ar    1  UNL1       -0.2482
     18 C         139.6551  139.6456  164.2925 C.ar    1  UNL1        0.0587
     19 C         139.8301  143.5087  165.4312 C.3     1  UNL1        0.0499
     20 C         139.4235  144.7794  164.7458 C.3     1  UNL1        0.0774
     21 N         139.0052  144.7540  163.3055 N.3     1  UNL1       -0.2700
     22 C         139.7617  145.5587  162.2905 C.3     1  UNL1        0.0897
     23 C         137.8305  143.9239  162.8802 C.3     1  UNL1        0.0897
@<TRIPOS>BOND
     1    12    13    1
     2    13    14   ar
     3    14    15   ar
     4    15    16   ar
     5    16    17   ar
     6    17    18   ar
     7    18    10    1
     8    10    11    1
     9    10     1    1
    10     1     2   ar
    11     2    19    1
    12    19    20    1
    13    20    21    1
    14    21    22    1
    15    21    23    1
    16     2     3   ar
    17     3     4   ar
    18     4     5   ar
    19     5     6   ar
    20     6     7   ar
    21     7     8   ar
    22     8     9   ar
    23    18    13   ar
    24     9     1   ar
    25     9     4   ar
@<TRIPOS>MOLECULE
*****
 23 25 0 0 0
SMALL
GASTEIGER

@<TRIPOS>ATOM
      1 C         138.7653  140.5029  164.4147 C.ar    1  UNL1       -0.0144
      2 C         138.3193  140.0689  163.0499 C.ar    1  UNL1        0.0051
      3 S         138.1355  141.2980  162.2098 S.2     1  UNL1       -0.0915
      4 C         138.4680  142.4915  163.0554 C.ar    1  UNL1        0.0288
      5 C         138.4666  143.9622  162.7606 C.ar    1  UNL1        0.0065
      6 C         138.8544  144.9415  163.8285 C.ar    1  UNL1        0.0005
      7 C         139.2436  144.4501  165.1913 C.ar    1  UNL1        0.0000
      8 C         139.2450  142.9794  165.4861 C.ar    1  UNL1        0.0002
      9 C         138.8572  142.0001  164.4182 C.ar    1  UNL1        0.0025
     10 C         139.0666  139.5984  165.5728 C.3     1  UNL1        0.0624
     11 C         137.9447  138.9730  166.3477 C.3     1  UNL1        0.0110
     12 C         140.1786  140.7135  168.1263 C.3     1  UNL1        0.0323
     13 C         141.0456  139.8768  167.2329 C.ar    1  UNL1       -0.0079
     14 C         142.4687  139.5977  167.6162 C.ar    1  UNL1       -0.0015
     15 C         143.3358  138.7610  166.7228 C.ar    1  UNL1        0.0203
     16 C         142.7798  138.2035  165.4460 C.ar    1  UNL1        0.0984
     17 N         141.3567  138.4826  165.0627 N.ar    1  UNL1       -0.2482
     18 C         140.4896  139.3193  165.9562 C.ar    1  UNL1        0.0587
     19 C         138.0962  138.6544  162.6036 C.3     1  UNL1        0.0499
     20 C         139.2690  137.7698  162.3003 C.3     1  UNL1        0.0774
     21 N         140.2253  138.1411  161.2060 N.3     1  UNL1       -0.2700
     22 C         141.7043  138.0716  161.4468 C.3     1  UNL1        0.0897
     23 C         139.7027  138.5818  159.8708 C.3     1  UNL1        0.0897
@<TRIPOS>BOND
     1    12    13    1
     2    13    14   ar
     3    14    15   ar
     4    15    16   ar
     5    16    17   ar
     6    17    18   ar
     7    18    10    1
     8    10    11    1
     9    10     1    1
    10     1     2   ar
    11     2    19    1
    12    19    20    1
    13    20    21    1
    14    21    22    1
    15    21    23    1
    16     2     3   ar
    17     3     4   ar
    18     4     5   ar
    19     5     6   ar
    20     6     7   ar
    21     7     8   ar
    22     8     9   ar
    23    18    13   ar
    24     9     1   ar
    25     9     4   ar
@<TRIPOS>MOLECULE
*****
 23 25 0 0 0
SMALL
GASTEIGER

@<TRIPOS>ATOM
      1 C         139.5784  140.6728  166.1332 C.ar    1  UNL1       -0.0144
      2 C         139.3475  142.0943  165.7137 C.ar    1  UNL1        0.0051
      3 S         140.3441  142.9566  166.4301 S.2     1  UNL1       -0.0915
      4 C         141.1909  142.0681  167.2923 C.ar    1  UNL1        0.0288
      5 C         142.3317  142.3619  168.2208 C.ar    1  UNL1        0.0065
      6 C         142.9993  141.2442  168.9658 C.ar    1  UNL1        0.0005
      7 C         142.5261  139.8326  168.7822 C.ar    1  UNL1        0.0000
      8 C         141.3852  139.5388  167.8538 C.ar    1  UNL1        0.0002
      9 C         140.7177  140.6565  167.1088 C.ar    1  UNL1        0.0025
     10 C         138.8057  139.4774  165.6601 C.3     1  UNL1        0.0624
     11 C         137.9413  138.7150  166.6202 C.3     1  UNL1        0.0110
     12 C         140.9922  137.6155  164.7925 C.3     1  UNL1        0.0323
     13 C         139.9905  138.1133  163.7931 C.ar    1  UNL1       -0.0079
     14 C         140.0820  137.6801  162.3600 C.ar    1  UNL1       -0.0015
     15 C         139.0803  138.1779  161.3606 C.ar    1  UNL1        0.0203
     16 C         137.9870  139.1088  161.7943 C.ar    1  UNL1        0.0984
     17 N         137.8955  139.5420  163.2275 N.ar    1  UNL1       -0.2482
     18 C         138.8973  139.0442  164.2270 C.ar    1  UNL1        0.0587
     19 C         138.3034  142.5700  164.7475 C.3     1  UNL1        0.0499
     20 C         138.3863  143.9540  164.1750 C.3     1  UNL1        0.0774
     21 N         138.6961  144.1464  162.7200 N.3     1  UNL1       -0.2700
     22 C         138.3259  143.0843  161.7275 C.3     1  UNL1        0.0897
     23 C         139.3762  145.4008  162.2575 C.3     1  UNL1        0.0897
@<TRIPOS>BOND
     1    12    13    1
     2    13    14   ar
     3    14    15   ar
     4    15    16   ar
     5    16    17   ar
     6    17    18   ar
     7    18    10    1
     8    10    11    1
     9    10     1    1
    10     1     2   ar
    11     2    19    1
    12    19    20    1
    13    20    21    1
    14    21    22    1
    15    21    23    1
    16     2     3   ar
    17     3     4   ar
    18     4     5   ar
    19     5     6   ar
    20     6     7   ar
    21     7     8   ar
    22     8     9   ar
    23    18    13   ar
    24     9     1   ar
    25     9     4   ar
@<TRIPOS>MOLECULE
*****
 23 25 0 0 0
SMALL
GASTEIGER

@<TRIPOS>ATOM
      1 C         141.7223  140.3948  165.3405 C.ar    1  UNL1       -0.0144
      2 C         141.8436  139.0565  164.6739 C.ar    1  UNL1        0.0051
      3 S         143.1640  139.0104  163.9637 S.2     1  UNL1       -0.0915
      4 C         143.8588  140.3202  164.1914 C.ar    1  UNL1        0.0288
      5 C         145.1876  140.8443  163.7338 C.ar    1  UNL1        0.0065
      6 C         145.6254  142.2240  164.1271 C.ar    1  UNL1        0.0005
      7 C         144.7344  143.0796  164.9779 C.ar    1  UNL1        0.0000
      8 C         143.4055  142.5555  165.4355 C.ar    1  UNL1        0.0002
      9 C         142.9677  141.1758  165.0422 C.ar    1  UNL1        0.0025
     10 C         140.5597  140.8688  166.1612 C.3     1  UNL1        0.0624
     11 C         140.2794  140.2441  167.4959 C.3     1  UNL1        0.0110
     12 C         138.0873  140.2006  164.5988 C.3     1  UNL1        0.0323
     13 C         138.4411  141.6335  164.8662 C.ar    1  UNL1       -0.0079
     14 C         137.5588  142.7324  164.3525 C.ar    1  UNL1       -0.0015
     15 C         137.9126  144.1653  164.6198 C.ar    1  UNL1        0.0203
     16 C         139.1488  144.4995  165.4010 C.ar    1  UNL1        0.0984
     17 N         140.0311  143.4006  165.9148 N.ar    1  UNL1       -0.2482
     18 C         139.6773  141.9676  165.6474 C.ar    1  UNL1        0.0587
     19 C         140.8236  137.9573  164.7111 C.3     1  UNL1        0.0499
     20 C         140.6100  137.0913  163.5051 C.3     1  UNL1        0.0774
     21 N         140.0225  137.6773  162.2555 N.3     1  UNL1       -0.2700
     22 C         138.5367  137.8424  162.1311 C.3     1  UNL1        0.0897
     23 C         140.9206  138.0983  161.1304 C.3     1  UNL1        0.0897
@<TRIPOS>BOND
     1    12    13    1
     2    13    14   ar
     3    14    15   ar
     4    15    16   ar
     5    16    17   ar
     6    17    18   ar
     7    18    10    1
     8    10    11    1
     9    10     1    1
    10     1     2   ar
    11     2    19    1
    12    19    20    1
    13    20    21    1
    14    21    22    1
    15    21    23    1
    16     2     3   ar
    17     3     4   ar
    18     4     5   ar
    19     5     6   ar
    20     6     7   ar
    21     7     8   ar
    22     8     9   ar
    23    18    13   ar
    24     9     1   ar
    25     9     4   ar
