@<TRIPOS>MOLECULE
*****
 41 45 0 0 0
SMALL
GASTEIGER

@<TRIPOS>ATOM
      1 C         141.6232  139.5494  161.0765 C.ar    1  UNL1        0.0797
      2 C         142.6777  139.1013  160.1085 C.ar    1  UNL1        0.0396
      3 C         141.9929  138.4316  158.9541 C.ar    1  UNL1        0.1024
      4 N         140.5150  138.4659  159.2087 N.ar    1  UNL1       -0.1691
      5 N         140.2865  139.1567  160.5204 N.ar    1  UNL1       -0.2487
      6 C         143.0791  142.3416  168.8117 C.3     1  UNL1        0.0310
      7 C         142.8392  141.6264  167.5152 C.ar    1  UNL1       -0.0218
      8 C         142.8557  140.1271  167.4716 C.ar    1  UNL1       -0.0043
      9 C         142.6158  139.4119  166.1751 C.ar    1  UNL1       -0.0003
     10 C         142.3594  140.1959  164.9223 C.ar    1  UNL1        0.0000
     11 C         142.1195  139.4807  163.6258 C.ar    1  UNL1        0.0015
     12 C         141.8631  140.2647  162.3730 C.ar    1  UNL1        0.0174
     13 C         141.8466  141.7640  162.4166 C.ar    1  UNL1        0.0015
     14 C         142.0865  142.4792  163.7131 C.ar    1  UNL1        0.0000
     15 C         142.3429  141.6951  164.9660 C.ar    1  UNL1       -0.0003
     16 C         142.5828  142.4104  166.2624 C.ar    1  UNL1       -0.0043
     17 C         142.6673  137.8329  157.7556 C.ar    1  UNL1        0.0211
     18 C         143.2258  138.7240  156.6860 C.ar    1  UNL1        0.0130
     19 C         143.9003  138.1252  155.4875 C.ar    1  UNL1        0.0586
     20 CL        144.4588  139.0163  154.4179 Cl      1  UNL1       -0.0822
     21 C         144.0163  136.6352  155.3586 C.ar    1  UNL1        0.0228
     22 C         143.4579  135.7441  156.4281 C.ar    1  UNL1        0.0586
     23 CL        143.5739  134.2542  156.2992 Cl      1  UNL1       -0.0822
     24 C         142.7834  136.3430  157.6266 C.ar    1  UNL1        0.0130
     25 C         138.9552  139.4102  161.1632 C.3     1  UNL1        0.1274
     26 C         137.7553  139.7044  160.3123 C.3     1  UNL1        0.0312
     27 C         138.8234  139.3696  162.6568 C.ar    1  UNL1       -0.0001
     28 C         138.5053  140.6236  163.4160 C.ar    1  UNL1       -0.0023
     29 C         138.3735  140.5831  164.9096 C.ar    1  UNL1        0.0042
     30 C         138.5600  139.2886  165.6441 C.ar    1  UNL1        0.0533
     31 C         138.8781  138.0346  164.8850 C.ar    1  UNL1        0.0042
     32 C         139.0099  138.0751  163.3914 C.ar    1  UNL1       -0.0023
     33 C         138.4282  139.2481  167.1378 C.2     1  UNL1        0.2459
     34 O         137.4178  138.3424  167.7773 O.2     1  UNL1       -0.2701
     35 N         139.3068  140.1132  167.9919 N.am    1  UNL1       -0.3005
     36 H         139.9699  140.7077  167.5722 H       1  UNL1        0.1498
     37 C         139.1751  140.0727  169.4856 C.3     1  UNL1        0.0956
     38 C         140.3310  140.4773  170.3517 C.3     1  UNL1        0.0629
     39 C         140.3229  141.8108  171.0384 C.2     1  UNL1        0.0520
     40 O         141.4654  142.2035  171.9276 O.co2   1  UNL1       -0.5491
     41 O         139.1724  142.7518  170.8360 O.co2   1  UNL1       -0.5491
@<TRIPOS>UNITY_ATOM_ATTR
40 1
charge -1
@<TRIPOS>BOND
     1     6     7    1
     2     7     8   ar
     3     8     9   ar
     4     9    10   ar
     5    10    11   ar
     6    11    12   ar
     7    12     1    1
     8     1     2   ar
     9     2     3   ar
    10     3    17    1
    11    17    18   ar
    12    18    19   ar
    13    19    20    1
    14    19    21   ar
    15    21    22   ar
    16    22    23    1
    17    22    24   ar
    18     3     4   ar
    19     4     5   ar
    20     5    25    1
    21    25    26    1
    22    25    27    1
    23    27    28   ar
    24    28    29   ar
    25    29    30   ar
    26    30    33    1
    27    33    34    2
    28    33    35   am
    29    35    37    1
    30    37    38    1
    31    38    39    1
    32    39    40   ar
    33    39    41   ar
    34    30    31   ar
    35    31    32   ar
    36    12    13   ar
    37    13    14   ar
    38    14    15   ar
    39    15    16   ar
    40    16     7   ar
    41    15    10   ar
    42     5     1   ar
    43    32    27   ar
    44    24    17   ar
    45    35    36    1
@<TRIPOS>MOLECULE
*****
 41 45 0 0 0
SMALL
GASTEIGER

@<TRIPOS>ATOM
      1 C         141.6515  139.5230  161.0375 C.ar    1  UNL1        0.0797
      2 C         142.7021  139.0610  160.0718 C.ar    1  UNL1        0.0396
      3 C         142.0111  138.3963  158.9181 C.ar    1  UNL1        0.1024
      4 N         140.5335  138.4476  159.1709 N.ar    1  UNL1       -0.1691
      5 N         140.3111  139.1439  160.4808 N.ar    1  UNL1       -0.2487
      6 C         143.0992  142.3168  168.7737 C.3     1  UNL1        0.0310
      7 C         142.8528  141.6013  167.4786 C.ar    1  UNL1       -0.0218
      8 C         142.8221  140.1021  167.4441 C.ar    1  UNL1       -0.0043
      9 C         142.5758  139.3865  166.1490 C.ar    1  UNL1       -0.0003
     10 C         142.3600  140.1703  164.8884 C.ar    1  UNL1        0.0000
     11 C         142.1136  139.4548  163.5933 C.ar    1  UNL1        0.0015
     12 C         141.8979  140.2385  162.3327 C.ar    1  UNL1        0.0174
     13 C         141.9285  141.7379  162.3671 C.ar    1  UNL1        0.0015
     14 C         142.1749  142.4534  163.6623 C.ar    1  UNL1        0.0000
     15 C         142.3906  141.6696  164.9229 C.ar    1  UNL1       -0.0003
     16 C         142.6370  142.3851  166.2180 C.ar    1  UNL1       -0.0043
     17 C         142.6803  137.7873  157.7218 C.ar    1  UNL1        0.0211
     18 C         142.7917  136.2962  157.6028 C.ar    1  UNL1        0.0130
     19 C         143.4609  135.6873  156.4064 C.ar    1  UNL1        0.0586
     20 CL        143.5723  134.1961  156.2873 Cl      1  UNL1       -0.0822
     21 C         144.0186  136.5695  155.3290 C.ar    1  UNL1        0.0228
     22 C         143.9072  138.0606  155.4480 C.ar    1  UNL1        0.0586
     23 CL        144.4649  138.9427  154.3706 Cl      1  UNL1       -0.0822
     24 C         143.2380  138.6695  156.6444 C.ar    1  UNL1        0.0130
     25 C         138.9820  139.4138  161.1214 C.3     1  UNL1        0.1274
     26 C         137.7897  139.7335  160.2691 C.3     1  UNL1        0.0312
     27 C         138.8449  139.3640  162.6143 C.ar    1  UNL1       -0.0001
     28 C         138.5390  140.6162  163.3815 C.ar    1  UNL1       -0.0023
     29 C         138.4019  140.5665  164.8744 C.ar    1  UNL1        0.0042
     30 C         138.5707  139.2646  165.6000 C.ar    1  UNL1        0.0533
     31 C         138.8766  138.0124  164.8329 C.ar    1  UNL1        0.0042
     32 C         139.0137  138.0621  163.3400 C.ar    1  UNL1       -0.0023
     33 C         138.4336  139.2149  167.0929 C.2     1  UNL1        0.2459
     34 O         137.4114  138.3156  167.7227 O.2     1  UNL1       -0.2701
     35 N         139.3186  140.0645  167.9561 N.am    1  UNL1       -0.3005
     36 H         139.9894  140.6548  167.5427 H       1  UNL1        0.1498
     37 C         139.1815  140.0149  169.4489 C.3     1  UNL1        0.0956
     38 C         140.2693  140.5684  170.3209 C.3     1  UNL1        0.0629
     39 C         140.1853  141.9806  170.8195 C.2     1  UNL1        0.0520
     40 O         139.8424  143.0915  169.8717 O.co2   1  UNL1       -0.5491
     41 O         140.4441  142.2819  172.2659 O.co2   1  UNL1       -0.5491
@<TRIPOS>UNITY_ATOM_ATTR
40 1
charge -1
@<TRIPOS>BOND
     1     6     7    1
     2     7     8   ar
     3     8     9   ar
     4     9    10   ar
     5    10    11   ar
     6    11    12   ar
     7    12     1    1
     8     1     2   ar
     9     2     3   ar
    10     3    17    1
    11    17    18   ar
    12    18    19   ar
    13    19    20    1
    14    19    21   ar
    15    21    22   ar
    16    22    23    1
    17    22    24   ar
    18     3     4   ar
    19     4     5   ar
    20     5    25    1
    21    25    26    1
    22    25    27    1
    23    27    28   ar
    24    28    29   ar
    25    29    30   ar
    26    30    33    1
    27    33    34    2
    28    33    35   am
    29    35    37    1
    30    37    38    1
    31    38    39    1
    32    39    40   ar
    33    39    41   ar
    34    30    31   ar
    35    31    32   ar
    36    12    13   ar
    37    13    14   ar
    38    14    15   ar
    39    15    16   ar
    40    16     7   ar
    41    15    10   ar
    42     5     1   ar
    43    32    27   ar
    44    24    17   ar
    45    35    36    1
@<TRIPOS>MOLECULE
*****
 41 45 0 0 0
SMALL
GASTEIGER

@<TRIPOS>ATOM
      1 C         141.1648  142.7703  161.3267 C.ar    1  UNL1        0.0797
      2 C         140.4978  143.4605  160.1740 C.ar    1  UNL1        0.0396
      3 C         141.5694  143.9989  159.2730 C.ar    1  UNL1        0.1024
      4 N         142.8987  143.6416  159.8689 N.ar    1  UNL1       -0.1691
      5 N         142.6488  142.8823  161.1382 N.ar    1  UNL1       -0.2487
      6 C         137.5598  137.8646  167.0440 C.3     1  UNL1        0.0310
      7 C         138.2547  138.5469  165.9031 C.ar    1  UNL1       -0.0218
      8 C         138.8187  137.7350  164.7750 C.ar    1  UNL1       -0.0043
      9 C         139.5135  138.4173  163.6341 C.ar    1  UNL1       -0.0003
     10 C         139.6443  139.9115  163.6213 C.ar    1  UNL1        0.0000
     11 C         140.3391  140.5938  162.4804 C.ar    1  UNL1        0.0015
     12 C         140.4700  142.0880  162.4676 C.ar    1  UNL1        0.0174
     13 C         139.9060  142.9000  163.5958 C.ar    1  UNL1        0.0015
     14 C         139.2111  142.2177  164.7367 C.ar    1  UNL1        0.0000
     15 C         139.0803  140.7234  164.7494 C.ar    1  UNL1       -0.0003
     16 C         138.3855  140.0411  165.8903 C.ar    1  UNL1       -0.0043
     17 C         141.3502  144.7609  157.9998 C.ar    1  UNL1        0.0211
     18 C         142.2170  144.4915  156.8057 C.ar    1  UNL1        0.0130
     19 C         141.9978  145.2535  155.5325 C.ar    1  UNL1        0.0586
     20 CL        142.8647  144.9840  154.3383 Cl      1  UNL1       -0.0822
     21 C         140.9116  146.2851  155.4533 C.ar    1  UNL1        0.0228
     22 C         140.0448  146.5546  156.6474 C.ar    1  UNL1        0.0586
     23 CL        138.9586  147.5861  156.5683 Cl      1  UNL1       -0.0822
     24 C         140.2640  145.7925  157.9207 C.ar    1  UNL1        0.0130
     25 C         143.6983  142.3316  162.0574 C.3     1  UNL1        0.1274
     26 C         145.0715  142.0315  161.5336 C.3     1  UNL1        0.0312
     27 C         143.3748  142.0810  163.5005 C.ar    1  UNL1       -0.0001
     28 C         143.2030  143.2360  164.4421 C.ar    1  UNL1       -0.0023
     29 C         142.8795  142.9855  165.8852 C.ar    1  UNL1        0.0042
     30 C         142.7279  141.5800  166.3868 C.ar    1  UNL1        0.0533
     31 C         142.8997  140.4250  165.4453 C.ar    1  UNL1        0.0042
     32 C         143.2232  140.6755  164.0022 C.ar    1  UNL1       -0.0023
     33 C         142.4044  141.3295  167.8299 C.2     1  UNL1        0.2459
     34 O         143.1286  142.0869  168.9033 O.2     1  UNL1       -0.2701
     35 N         141.3568  140.3216  168.1997 N.am    1  UNL1       -0.3005
     36 H         140.8816  139.8245  167.4952 H       1  UNL1        0.1498
     37 C         141.0334  140.0711  169.6428 C.3     1  UNL1        0.0956
     38 C         139.9514  140.8615  170.3171 C.3     1  UNL1        0.0629
     39 C         140.2968  142.1036  171.0837 C.2     1  UNL1        0.0520
     40 O         139.3505  143.2674  171.0921 O.co2   1  UNL1       -0.5491
     41 O         141.5887  142.1821  171.8420 O.co2   1  UNL1       -0.5491
@<TRIPOS>UNITY_ATOM_ATTR
40 1
charge -1
@<TRIPOS>BOND
     1     6     7    1
     2     7     8   ar
     3     8     9   ar
     4     9    10   ar
     5    10    11   ar
     6    11    12   ar
     7    12     1    1
     8     1     2   ar
     9     2     3   ar
    10     3    17    1
    11    17    18   ar
    12    18    19   ar
    13    19    20    1
    14    19    21   ar
    15    21    22   ar
    16    22    23    1
    17    22    24   ar
    18     3     4   ar
    19     4     5   ar
    20     5    25    1
    21    25    26    1
    22    25    27    1
    23    27    28   ar
    24    28    29   ar
    25    29    30   ar
    26    30    33    1
    27    33    34    2
    28    33    35   am
    29    35    37    1
    30    37    38    1
    31    38    39    1
    32    39    40   ar
    33    39    41   ar
    34    30    31   ar
    35    31    32   ar
    36    12    13   ar
    37    13    14   ar
    38    14    15   ar
    39    15    16   ar
    40    16     7   ar
    41    15    10   ar
    42     5     1   ar
    43    32    27   ar
    44    24    17   ar
    45    35    36    1
@<TRIPOS>MOLECULE
*****
 41 45 0 0 0
SMALL
GASTEIGER

@<TRIPOS>ATOM
      1 C         141.1391  142.6844  161.3628 C.ar    1  UNL1        0.0797
      2 C         140.5016  143.3505  160.1796 C.ar    1  UNL1        0.0396
      3 C         141.5930  143.9355  159.3331 C.ar    1  UNL1        0.1024
      4 N         142.9051  143.6310  159.9930 N.ar    1  UNL1       -0.1691
      5 N         142.6247  142.8578  161.2475 N.ar    1  UNL1       -0.2487
      6 C         137.5409  137.6152  166.9400 C.3     1  UNL1        0.0310
      7 C         138.2621  138.3292  165.8355 C.ar    1  UNL1       -0.0218
      8 C         138.9913  137.5443  164.7856 C.ar    1  UNL1       -0.0043
      9 C         139.7125  138.2584  163.6811 C.ar    1  UNL1       -0.0003
     10 C         139.7046  139.7573  163.6264 C.ar    1  UNL1        0.0000
     11 C         140.4258  140.4714  162.5219 C.ar    1  UNL1        0.0015
     12 C         140.4179  141.9703  162.4673 C.ar    1  UNL1        0.0174
     13 C         139.6887  142.7553  163.5171 C.ar    1  UNL1        0.0015
     14 C         138.9675  142.0413  164.6217 C.ar    1  UNL1        0.0000
     15 C         138.9754  140.5422  164.6763 C.ar    1  UNL1       -0.0003
     16 C         138.2542  139.8282  165.7808 C.ar    1  UNL1       -0.0043
     17 C         141.4053  144.6921  158.0517 C.ar    1  UNL1        0.0211
     18 C         140.3062  145.7061  157.9334 C.ar    1  UNL1        0.0130
     19 C         140.1186  146.4627  156.6519 C.ar    1  UNL1        0.0586
     20 CL        139.0195  147.4767  156.5336 Cl      1  UNL1       -0.0822
     21 C         141.0300  146.2054  155.4886 C.ar    1  UNL1        0.0228
     22 C         142.1290  145.1914  155.6069 C.ar    1  UNL1        0.0586
     23 CL        143.0404  144.9341  154.4436 Cl      1  UNL1       -0.0822
     24 C         142.3166  144.4348  156.8884 C.ar    1  UNL1        0.0130
     25 C         143.6497  142.3475  162.2164 C.3     1  UNL1        0.1274
     26 C         145.0748  142.1773  161.7803 C.3     1  UNL1        0.0312
     27 C         143.2498  142.0074  163.6215 C.ar    1  UNL1       -0.0001
     28 C         143.2488  140.5778  164.0758 C.ar    1  UNL1       -0.0023
     29 C         142.8489  140.2376  165.4809 C.ar    1  UNL1        0.0042
     30 C         142.4500  141.3270  166.4318 C.ar    1  UNL1        0.0533
     31 C         142.4511  142.7566  165.9776 C.ar    1  UNL1        0.0042
     32 C         142.8509  143.0968  164.5725 C.ar    1  UNL1       -0.0023
     33 C         142.0502  140.9868  167.8369 C.2     1  UNL1        0.2459
     34 O         143.0444  141.1184  168.9524 O.2     1  UNL1       -0.2701
     35 N         140.6561  140.5150  168.1265 N.am    1  UNL1       -0.3005
     36 H         140.0035  140.4286  167.3944 H       1  UNL1        0.1498
     37 C         140.2562  140.1748  169.5316 C.3     1  UNL1        0.0956
     38 C         139.5603  141.1962  170.3816 C.3     1  UNL1        0.0629
     39 C         140.3072  142.4035  170.8659 C.2     1  UNL1        0.0520
     40 O         139.9096  143.7707  170.3941 O.co2   1  UNL1       -0.5491
     41 O         141.4519  142.2436  171.8220 O.co2   1  UNL1       -0.5491
@<TRIPOS>UNITY_ATOM_ATTR
40 1
charge -1
@<TRIPOS>BOND
     1     6     7    1
     2     7     8   ar
     3     8     9   ar
     4     9    10   ar
     5    10    11   ar
     6    11    12   ar
     7    12     1    1
     8     1     2   ar
     9     2     3   ar
    10     3    17    1
    11    17    18   ar
    12    18    19   ar
    13    19    20    1
    14    19    21   ar
    15    21    22   ar
    16    22    23    1
    17    22    24   ar
    18     3     4   ar
    19     4     5   ar
    20     5    25    1
    21    25    26    1
    22    25    27    1
    23    27    28   ar
    24    28    29   ar
    25    29    30   ar
    26    30    33    1
    27    33    34    2
    28    33    35   am
    29    35    37    1
    30    37    38    1
    31    38    39    1
    32    39    40   ar
    33    39    41   ar
    34    30    31   ar
    35    31    32   ar
    36    12    13   ar
    37    13    14   ar
    38    14    15   ar
    39    15    16   ar
    40    16     7   ar
    41    15    10   ar
    42     5     1   ar
    43    32    27   ar
    44    24    17   ar
    45    35    36    1
@<TRIPOS>MOLECULE
*****
 41 45 0 0 0
SMALL
GASTEIGER

@<TRIPOS>ATOM
      1 C         140.4018  139.2958  160.2837 C.ar    1  UNL1        0.0797
      2 C         139.8320  139.0727  158.9142 C.ar    1  UNL1        0.0396
      3 C         140.7188  138.0991  158.1961 C.ar    1  UNL1        0.1024
      4 N         141.8367  137.7205  159.1217 N.ar    1  UNL1       -0.1691
      5 N         141.6408  138.4600  160.4120 N.ar    1  UNL1       -0.2487
      6 C         138.2131  145.1139  165.8613 C.3     1  UNL1        0.0310
      7 C         138.7823  144.2132  164.8055 C.ar    1  UNL1       -0.0218
      8 C         140.0089  144.6273  164.0480 C.ar    1  UNL1       -0.0043
      9 C         140.5782  143.7267  162.9922 C.ar    1  UNL1       -0.0003
     10 C         139.9207  142.4119  162.6938 C.ar    1  UNL1        0.0000
     11 C         140.4900  141.5112  161.6379 C.ar    1  UNL1        0.0015
     12 C         139.8325  140.1965  161.3396 C.ar    1  UNL1        0.0174
     13 C         138.6058  139.7823  162.0970 C.ar    1  UNL1        0.0015
     14 C         138.0366  140.6829  163.1529 C.ar    1  UNL1        0.0000
     15 C         138.6941  141.9978  163.4512 C.ar    1  UNL1       -0.0003
     16 C         138.1249  142.8984  164.5071 C.ar    1  UNL1       -0.0043
     17 C         140.5222  137.5931  156.7978 C.ar    1  UNL1        0.0211
     18 C         141.6164  136.8250  156.1175 C.ar    1  UNL1        0.0130
     19 C         141.4197  136.3189  154.7192 C.ar    1  UNL1        0.0586
     20 CL        142.5139  135.5507  154.0387 Cl      1  UNL1       -0.0822
     21 C         140.1290  136.5809  154.0012 C.ar    1  UNL1        0.0228
     22 C         139.0349  137.3490  154.6816 C.ar    1  UNL1        0.0586
     23 CL        137.7442  137.6111  153.9637 Cl      1  UNL1       -0.0822
     24 C         139.2315  137.8551  156.0799 C.ar    1  UNL1        0.0130
     25 C         142.5281  138.3782  161.6186 C.3     1  UNL1        0.1274
     26 C         143.9747  138.0135  161.4625 C.3     1  UNL1        0.0312
     27 C         141.9689  138.6612  162.9814 C.ar    1  UNL1       -0.0001
     28 C         142.3990  139.8888  163.7285 C.ar    1  UNL1       -0.0023
     29 C         141.8400  140.1719  165.0913 C.ar    1  UNL1        0.0042
     30 C         140.8507  139.2272  165.7071 C.ar    1  UNL1        0.0533
     31 C         140.4206  137.9996  164.9601 C.ar    1  UNL1        0.0042
     32 C         140.9797  137.7166  163.5973 C.ar    1  UNL1       -0.0023
     33 C         140.2916  139.5103  167.0699 C.2     1  UNL1        0.2459
     34 O         138.8250  139.3330  167.3306 O.2     1  UNL1       -0.2701
     35 N         141.1990  139.9706  168.1721 N.am    1  UNL1       -0.3005
     36 H         142.1615  140.0869  168.0010 H       1  UNL1        0.1498
     37 C         140.6399  140.2536  169.5349 C.3     1  UNL1        0.0956
     38 C         139.8051  141.4787  169.7635 C.3     1  UNL1        0.0629
     39 C         140.1081  142.3882  170.9171 C.2     1  UNL1        0.0520
     40 O         141.3874  142.2269  171.6835 O.co2   1  UNL1       -0.5491
     41 O         139.1318  143.4591  171.3045 O.co2   1  UNL1       -0.5491
@<TRIPOS>UNITY_ATOM_ATTR
40 1
charge -1
@<TRIPOS>BOND
     1     6     7    1
     2     7     8   ar
     3     8     9   ar
     4     9    10   ar
     5    10    11   ar
     6    11    12   ar
     7    12     1    1
     8     1     2   ar
     9     2     3   ar
    10     3    17    1
    11    17    18   ar
    12    18    19   ar
    13    19    20    1
    14    19    21   ar
    15    21    22   ar
    16    22    23    1
    17    22    24   ar
    18     3     4   ar
    19     4     5   ar
    20     5    25    1
    21    25    26    1
    22    25    27    1
    23    27    28   ar
    24    28    29   ar
    25    29    30   ar
    26    30    33    1
    27    33    34    2
    28    33    35   am
    29    35    37    1
    30    37    38    1
    31    38    39    1
    32    39    40   ar
    33    39    41   ar
    34    30    31   ar
    35    31    32   ar
    36    12    13   ar
    37    13    14   ar
    38    14    15   ar
    39    15    16   ar
    40    16     7   ar
    41    15    10   ar
    42     5     1   ar
    43    32    27   ar
    44    24    17   ar
    45    35    36    1
@<TRIPOS>MOLECULE
*****
 41 45 0 0 0
SMALL
GASTEIGER

@<TRIPOS>ATOM
      1 C         143.2329  141.5337  159.9944 C.ar    1  UNL1        0.0797
      2 C         143.7745  142.1997  158.7643 C.ar    1  UNL1        0.0396
      3 C         144.3583  141.1373  157.8809 C.ar    1  UNL1        0.1024
      4 N         144.1776  139.8147  158.5650 N.ar    1  UNL1       -0.1691
      5 N         143.4820  140.0596  159.8712 N.ar    1  UNL1       -0.2487
      6 C         138.3724  145.0299  165.8170 C.3     1  UNL1        0.0310
      7 C         139.0451  144.3426  164.6658 C.ar    1  UNL1       -0.0218
      8 C         138.2204  143.7148  163.5815 C.ar    1  UNL1       -0.0043
      9 C         138.8930  143.0275  162.4303 C.ar    1  UNL1       -0.0003
     10 C         140.3903  142.9679  162.3635 C.ar    1  UNL1        0.0000
     11 C         141.0630  142.2806  161.2124 C.ar    1  UNL1        0.0015
     12 C         142.5602  142.2210  161.1455 C.ar    1  UNL1        0.0174
     13 C         143.3850  142.8488  162.2299 C.ar    1  UNL1        0.0015
     14 C         142.7124  143.5361  163.3810 C.ar    1  UNL1        0.0000
     15 C         141.2150  143.5957  163.4478 C.ar    1  UNL1       -0.0003
     16 C         140.5423  144.2830  164.5990 C.ar    1  UNL1       -0.0043
     17 C         145.0087  141.3586  156.5475 C.ar    1  UNL1        0.0211
     18 C         144.1993  141.2440  155.2899 C.ar    1  UNL1        0.0130
     19 C         144.8498  141.4653  153.9565 C.ar    1  UNL1        0.0586
     20 CL        144.0403  141.3507  152.6988 Cl      1  UNL1       -0.0822
     21 C         146.3097  141.8012  153.8808 C.ar    1  UNL1        0.0228
     22 C         147.1192  141.9159  155.1384 C.ar    1  UNL1        0.0586
     23 CL        148.5791  142.2518  155.0626 Cl      1  UNL1       -0.0822
     24 C         146.4687  141.6945  156.4718 C.ar    1  UNL1        0.0130
     25 C         143.1023  139.0141  160.8775 C.3     1  UNL1        0.1274
     26 C         142.8462  137.6042  160.4340 C.3     1  UNL1        0.0312
     27 C         142.9785  139.3784  162.3273 C.ar    1  UNL1       -0.0001
     28 C         144.2093  139.6584  163.1379 C.ar    1  UNL1       -0.0023
     29 C         144.0857  140.0227  164.5877 C.ar    1  UNL1        0.0042
     30 C         142.7313  140.1070  165.2270 C.ar    1  UNL1        0.0533
     31 C         141.5006  139.8271  164.4164 C.ar    1  UNL1        0.0042
     32 C         141.6242  139.4628  162.9666 C.ar    1  UNL1       -0.0023
     33 C         142.6076  140.4713  166.6768 C.2     1  UNL1        0.2459
     34 O         143.1647  139.5593  167.7294 O.2     1  UNL1       -0.2701
     35 N         141.9269  141.7476  167.0740 N.am    1  UNL1       -0.3005
     36 H         141.5613  142.3461  166.3832 H       1  UNL1        0.1498
     37 C         141.8033  142.1119  168.5238 C.3     1  UNL1        0.0956
     38 C         140.4472  142.2976  169.1375 C.3     1  UNL1        0.0629
     39 C         140.3042  143.0510  170.4266 C.2     1  UNL1        0.0520
     40 O         140.4585  142.3345  171.7353 O.co2   1  UNL1       -0.5491
     41 O         140.0068  144.5211  170.4071 O.co2   1  UNL1       -0.5491
@<TRIPOS>UNITY_ATOM_ATTR
40 1
charge -1
@<TRIPOS>BOND
     1     6     7    1
     2     7     8   ar
     3     8     9   ar
     4     9    10   ar
     5    10    11   ar
     6    11    12   ar
     7    12     1    1
     8     1     2   ar
     9     2     3   ar
    10     3    17    1
    11    17    18   ar
    12    18    19   ar
    13    19    20    1
    14    19    21   ar
    15    21    22   ar
    16    22    23    1
    17    22    24   ar
    18     3     4   ar
    19     4     5   ar
    20     5    25    1
    21    25    26    1
    22    25    27    1
    23    27    28   ar
    24    28    29   ar
    25    29    30   ar
    26    30    33    1
    27    33    34    2
    28    33    35   am
    29    35    37    1
    30    37    38    1
    31    38    39    1
    32    39    40   ar
    33    39    41   ar
    34    30    31   ar
    35    31    32   ar
    36    12    13   ar
    37    13    14   ar
    38    14    15   ar
    39    15    16   ar
    40    16     7   ar
    41    15    10   ar
    42     5     1   ar
    43    32    27   ar
    44    24    17   ar
    45    35    36    1
@<TRIPOS>MOLECULE
*****
 41 45 0 0 0
SMALL
GASTEIGER

@<TRIPOS>ATOM
      1 C         143.3070  141.6929  159.9804 C.ar    1  UNL1        0.0797
      2 C         143.8293  142.3730  158.7497 C.ar    1  UNL1        0.0396
      3 C         144.4348  141.3257  157.8628 C.ar    1  UNL1        0.1024
      4 N         144.2867  139.9982  158.5454 N.ar    1  UNL1       -0.1691
      5 N         143.5896  140.2251  159.8541 N.ar    1  UNL1       -0.2487
      6 C         138.3853  145.0554  165.8302 C.3     1  UNL1        0.0310
      7 C         139.0700  144.3855  164.6759 C.ar    1  UNL1       -0.0218
      8 C         138.2570  143.7286  163.6002 C.ar    1  UNL1       -0.0043
      9 C         138.9417  143.0587  162.4459 C.ar    1  UNL1       -0.0003
     10 C         140.4396  143.0457  162.3674 C.ar    1  UNL1        0.0000
     11 C         141.1243  142.3758  161.2131 C.ar    1  UNL1        0.0015
     12 C         142.6222  142.3628  161.1346 C.ar    1  UNL1        0.0174
     13 C         143.4354  143.0197  162.2104 C.ar    1  UNL1        0.0015
     14 C         142.7506  143.6896  163.3647 C.ar    1  UNL1        0.0000
     15 C         141.2527  143.7026  163.4432 C.ar    1  UNL1       -0.0003
     16 C         140.5679  144.3725  164.5974 C.ar    1  UNL1       -0.0043
     17 C         145.0758  141.5639  156.5278 C.ar    1  UNL1        0.0211
     18 C         146.5597  141.7607  156.4328 C.ar    1  UNL1        0.0130
     19 C         147.2007  141.9990  155.0977 C.ar    1  UNL1        0.0586
     20 CL        148.6848  142.1958  155.0027 Cl      1  UNL1       -0.0822
     21 C         146.3577  142.0404  153.8577 C.ar    1  UNL1        0.0228
     22 C         144.8737  141.8436  153.9528 C.ar    1  UNL1        0.0586
     23 CL        144.0307  141.8851  152.7127 Cl      1  UNL1       -0.0822
     24 C         144.2327  141.6054  155.2878 C.ar    1  UNL1        0.0130
     25 C         143.2372  139.1697  160.8599 C.3     1  UNL1        0.1274
     26 C         143.0424  137.7490  160.4195 C.3     1  UNL1        0.0312
     27 C         143.0795  139.5347  162.3063 C.ar    1  UNL1       -0.0001
     28 C         141.7109  139.6105  162.9156 C.ar    1  UNL1       -0.0023
     29 C         141.5530  139.9755  164.3620 C.ar    1  UNL1        0.0042
     30 C         142.7638  140.2646  165.1989 C.ar    1  UNL1        0.0533
     31 C         144.1324  140.1887  164.5896 C.ar    1  UNL1        0.0042
     32 C         144.2902  139.8237  163.1433 C.ar    1  UNL1       -0.0023
     33 C         142.6060  140.6296  166.6452 C.2     1  UNL1        0.2459
     34 O         142.7528  139.5777  167.7046 O.2     1  UNL1       -0.2701
     35 N         142.3014  142.0464  167.0323 N.am    1  UNL1       -0.3005
     36 H         142.2050  142.7368  166.3371 H       1  UNL1        0.1498
     37 C         142.1435  142.4114  168.4786 C.3     1  UNL1        0.0956
     38 C         140.8418  142.1561  169.1788 C.3     1  UNL1        0.0629
     39 C         140.4765  142.9519  170.3967 C.2     1  UNL1        0.0520
     40 O         140.5485  142.3199  171.7551 O.co2   1  UNL1       -0.5491
     41 O         140.0394  144.3799  170.2562 O.co2   1  UNL1       -0.5491
@<TRIPOS>UNITY_ATOM_ATTR
40 1
charge -1
@<TRIPOS>BOND
     1     6     7    1
     2     7     8   ar
     3     8     9   ar
     4     9    10   ar
     5    10    11   ar
     6    11    12   ar
     7    12     1    1
     8     1     2   ar
     9     2     3   ar
    10     3    17    1
    11    17    18   ar
    12    18    19   ar
    13    19    20    1
    14    19    21   ar
    15    21    22   ar
    16    22    23    1
    17    22    24   ar
    18     3     4   ar
    19     4     5   ar
    20     5    25    1
    21    25    26    1
    22    25    27    1
    23    27    28   ar
    24    28    29   ar
    25    29    30   ar
    26    30    33    1
    27    33    34    2
    28    33    35   am
    29    35    37    1
    30    37    38    1
    31    38    39    1
    32    39    40   ar
    33    39    41   ar
    34    30    31   ar
    35    31    32   ar
    36    12    13   ar
    37    13    14   ar
    38    14    15   ar
    39    15    16   ar
    40    16     7   ar
    41    15    10   ar
    42     5     1   ar
    43    32    27   ar
    44    24    17   ar
    45    35    36    1
@<TRIPOS>MOLECULE
*****
 41 45 0 0 0
SMALL
GASTEIGER

@<TRIPOS>ATOM
      1 C         141.6987  141.7829  161.1693 C.ar    1  UNL1        0.0797
      2 C         141.5465  141.4623  159.7119 C.ar    1  UNL1        0.0396
      3 C         142.6588  142.1414  158.9692 C.ar    1  UNL1        0.1024
      4 N         143.4985  142.8817  159.9676 N.ar    1  UNL1       -0.1691
      5 N         142.9052  142.6602  161.3274 N.ar    1  UNL1       -0.2487
      6 C         137.3106  138.0007  167.1851 C.3     1  UNL1        0.0310
      7 C         138.2074  138.4742  166.0798 C.ar    1  UNL1       -0.0218
      8 C         139.1996  137.5330  165.4638 C.ar    1  UNL1       -0.0043
      9 C         140.0963  138.0065  164.3585 C.ar    1  UNL1       -0.0003
     10 C         140.0008  139.4212  163.8692 C.ar    1  UNL1        0.0000
     11 C         140.8975  139.8947  162.7639 C.ar    1  UNL1        0.0015
     12 C         140.8020  141.3094  162.2746 C.ar    1  UNL1        0.0174
     13 C         139.8097  142.2507  162.8906 C.ar    1  UNL1        0.0015
     14 C         138.9130  141.7772  163.9959 C.ar    1  UNL1        0.0000
     15 C         139.0086  140.3624  164.4852 C.ar    1  UNL1       -0.0003
     16 C         138.1118  139.8889  165.5905 C.ar    1  UNL1       -0.0043
     17 C         142.8908  142.0893  157.4882 C.ar    1  UNL1        0.0211
     18 C         144.1038  141.3956  156.9430 C.ar    1  UNL1        0.0130
     19 C         144.3357  141.3436  155.4619 C.ar    1  UNL1        0.0586
     20 CL        145.5488  140.6499  154.9166 Cl      1  UNL1       -0.0822
     21 C         143.3545  141.9852  154.5261 C.ar    1  UNL1        0.0228
     22 C         142.1415  142.6789  155.0714 C.ar    1  UNL1        0.0586
     23 CL        141.1603  143.3205  154.1356 Cl      1  UNL1       -0.0822
     24 C         141.9096  142.7309  156.5525 C.ar    1  UNL1        0.0130
     25 C         143.4266  143.2179  162.6184 C.3     1  UNL1        0.1274
     26 C         144.1197  144.5482  162.6352 C.3     1  UNL1        0.0312
     27 C         143.2552  142.4456  163.8928 C.ar    1  UNL1       -0.0001
     28 C         143.9057  141.1030  164.0493 C.ar    1  UNL1       -0.0023
     29 C         143.7343  140.3306  165.3237 C.ar    1  UNL1        0.0042
     30 C         142.9124  140.9008  166.4415 C.ar    1  UNL1        0.0533
     31 C         142.2620  142.2433  166.2850 C.ar    1  UNL1        0.0042
     32 C         142.4333  143.0157  165.0107 C.ar    1  UNL1       -0.0023
     33 C         142.7411  140.1283  167.7158 C.2     1  UNL1        0.2459
     34 O         143.1847  138.6973  167.7910 O.2     1  UNL1       -0.2701
     35 N         142.1261  140.7868  168.9151 N.am    1  UNL1       -0.3005
     36 H         141.8349  141.7260  168.8658 H       1  UNL1        0.1498
     37 C         141.9547  140.0144  170.1894 C.3     1  UNL1        0.0956
     38 C         140.5797  139.6578  170.6712 C.3     1  UNL1        0.0629
     39 C         139.4021  140.4925  170.2632 C.2     1  UNL1        0.0520
     40 O         139.6076  141.9049  169.8019 O.co2   1  UNL1       -0.5491
     41 O         138.0188  139.9148  170.3164 O.co2   1  UNL1       -0.5491
@<TRIPOS>UNITY_ATOM_ATTR
40 1
charge -1
@<TRIPOS>BOND
     1     6     7    1
     2     7     8   ar
     3     8     9   ar
     4     9    10   ar
     5    10    11   ar
     6    11    12   ar
     7    12     1    1
     8     1     2   ar
     9     2     3   ar
    10     3    17    1
    11    17    18   ar
    12    18    19   ar
    13    19    20    1
    14    19    21   ar
    15    21    22   ar
    16    22    23    1
    17    22    24   ar
    18     3     4   ar
    19     4     5   ar
    20     5    25    1
    21    25    26    1
    22    25    27    1
    23    27    28   ar
    24    28    29   ar
    25    29    30   ar
    26    30    33    1
    27    33    34    2
    28    33    35   am
    29    35    37    1
    30    37    38    1
    31    38    39    1
    32    39    40   ar
    33    39    41   ar
    34    30    31   ar
    35    31    32   ar
    36    12    13   ar
    37    13    14   ar
    38    14    15   ar
    39    15    16   ar
    40    16     7   ar
    41    15    10   ar
    42     5     1   ar
    43    32    27   ar
    44    24    17   ar
    45    35    36    1
@<TRIPOS>MOLECULE
*****
 41 45 0 0 0
SMALL
GASTEIGER

@<TRIPOS>ATOM
      1 C         142.2787  139.4186  160.0769 C.ar    1  UNL1        0.0797
      2 C         141.9873  138.1910  159.2656 C.ar    1  UNL1        0.0396
      3 C         142.8282  138.2451  158.0246 C.ar    1  UNL1        0.1024
      4 N         143.6393  139.5061  158.0690 N.ar    1  UNL1       -0.1691
      5 N         143.2998  140.2314  159.3373 N.ar    1  UNL1       -0.2487
      6 C         139.6802  140.5458  167.9335 C.3     1  UNL1        0.0310
      7 C         140.3009  140.1929  166.6143 C.ar    1  UNL1       -0.0218
      8 C         141.4262  139.2030  166.5558 C.ar    1  UNL1       -0.0043
      9 C         142.0469  138.8501  165.2366 C.ar    1  UNL1       -0.0003
     10 C         141.5421  139.4872  163.9759 C.ar    1  UNL1        0.0000
     11 C         142.1628  139.1344  162.6567 C.ar    1  UNL1        0.0015
     12 C         141.6580  139.7714  161.3961 C.ar    1  UNL1        0.0174
     13 C         140.5326  140.7615  161.4546 C.ar    1  UNL1        0.0015
     14 C         139.9120  141.1143  162.7738 C.ar    1  UNL1        0.0000
     15 C         140.4168  140.4772  164.0345 C.ar    1  UNL1       -0.0003
     16 C         139.7961  140.8300  165.3537 C.ar    1  UNL1       -0.0043
     17 C         142.8536  137.2185  156.9314 C.ar    1  UNL1        0.0211
     18 C         142.4822  137.6053  155.5305 C.ar    1  UNL1        0.0130
     19 C         142.5076  136.5786  154.4372 C.ar    1  UNL1        0.0586
     20 CL        142.1362  136.9654  153.0363 Cl      1  UNL1       -0.0822
     21 C         142.9044  135.1651  154.7448 C.ar    1  UNL1        0.0228
     22 C         143.2758  134.7783  156.1457 C.ar    1  UNL1        0.0586
     23 CL        143.6726  133.3648  156.4532 Cl      1  UNL1       -0.0822
     24 C         143.2504  135.8050  157.2389 C.ar    1  UNL1        0.0130
     25 C         143.8794  141.5397  159.7871 C.3     1  UNL1        0.1274
     26 C         144.4121  142.5112  158.7759 C.3     1  UNL1        0.0312
     27 C         143.9264  141.8766  161.2480 C.ar    1  UNL1       -0.0001
     28 C         144.8427  141.1195  162.1631 C.ar    1  UNL1       -0.0023
     29 C         144.8898  141.4563  163.6240 C.ar    1  UNL1        0.0042
     30 C         144.0206  142.5502  164.1699 C.ar    1  UNL1        0.0533
     31 C         143.1043  143.3072  163.2548 C.ar    1  UNL1        0.0042
     32 C         143.0572  142.9704  161.7939 C.ar    1  UNL1       -0.0023
     33 C         144.0677  142.8870  165.6308 C.2     1  UNL1        0.2459
     34 O         144.9561  143.9935  166.1171 O.2     1  UNL1       -0.2701
     35 N         143.2265  142.1173  166.6054 N.am    1  UNL1       -0.3005
     36 H         142.6434  141.3911  166.2862 H       1  UNL1        0.1498
     37 C         143.2736  142.4541  168.0664 C.3     1  UNL1        0.0956
     38 C         143.0898  141.3744  169.0913 C.3     1  UNL1        0.0629
     39 C         142.3784  141.6742  170.3773 C.2     1  UNL1        0.0520
     40 O         141.5076  140.6317  171.0135 O.co2   1  UNL1       -0.5491
     41 O         142.5378  143.0167  171.0273 O.co2   1  UNL1       -0.5491
@<TRIPOS>UNITY_ATOM_ATTR
40 1
charge -1
@<TRIPOS>BOND
     1     6     7    1
     2     7     8   ar
     3     8     9   ar
     4     9    10   ar
     5    10    11   ar
     6    11    12   ar
     7    12     1    1
     8     1     2   ar
     9     2     3   ar
    10     3    17    1
    11    17    18   ar
    12    18    19   ar
    13    19    20    1
    14    19    21   ar
    15    21    22   ar
    16    22    23    1
    17    22    24   ar
    18     3     4   ar
    19     4     5   ar
    20     5    25    1
    21    25    26    1
    22    25    27    1
    23    27    28   ar
    24    28    29   ar
    25    29    30   ar
    26    30    33    1
    27    33    34    2
    28    33    35   am
    29    35    37    1
    30    37    38    1
    31    38    39    1
    32    39    40   ar
    33    39    41   ar
    34    30    31   ar
    35    31    32   ar
    36    12    13   ar
    37    13    14   ar
    38    14    15   ar
    39    15    16   ar
    40    16     7   ar
    41    15    10   ar
    42     5     1   ar
    43    32    27   ar
    44    24    17   ar
    45    35    36    1
