@<TRIPOS>MOLECULE
*****
 37 42 0 0 0
SMALL
GASTEIGER

@<TRIPOS>ATOM
      1 C         140.1853  139.3176  163.3047 C.ar    1  UNL1        0.0119
      2 C         139.2222  138.2121  162.9884 C.ar    1  UNL1        0.0213
      3 C         138.5793  138.1418  161.6350 C.ar    1  UNL1        0.0989
      4 N         138.8996  139.1771  160.5979 N.ar    1  UNL1       -0.2433
      5 C         139.8627  140.2826  160.9141 C.ar    1  UNL1        0.0875
      6 C         140.3688  141.4364  160.1001 C.ar    1  UNL1        0.0235
      7 C         141.3244  142.2198  160.9504 C.ar    1  UNL1        0.0292
      8 S         141.4090  141.5502  162.2900 S.2     1  UNL1       -0.0880
      9 C         140.5056  140.3529  162.2675 C.ar    1  UNL1        0.0469
     10 C         140.1540  141.0046  168.2193 C.3     1  UNL1        0.0342
     11 C         140.8126  140.2314  167.1154 C.ar    1  UNL1        0.0129
     12 C         142.1141  139.5286  167.3650 C.ar    1  UNL1        0.0101
     13 C         142.7727  138.7555  166.2611 C.ar    1  UNL1        0.0576
     14 CL        144.0741  138.0527  166.5106 Cl      1  UNL1       -0.0823
     15 C         142.1297  138.6852  164.9076 C.ar    1  UNL1        0.0144
     16 C         140.8283  139.3879  164.6581 C.ar    1  UNL1        0.0351
     17 C         140.1697  140.1611  165.7620 C.ar    1  UNL1        0.1343
     18 O         138.8682  140.8639  165.5124 O.3     1  UNL1       -0.4794
     19 C         138.8567  142.2043  164.8393 C.3     1  UNL1        0.1685
     20 C         139.7383  143.3064  165.3476 C.3     1  UNL1        0.0606
     21 C         139.7269  144.6469  164.6745 C.3     1  UNL1        0.0723
     22 N         138.8338  144.8852  163.4930 N.3     1  UNL1       -0.2973
     23 C         137.9523  143.7832  162.9848 C.3     1  UNL1        0.0721
     24 C         137.9638  142.4427  163.6579 C.3     1  UNL1        0.0558
     25 C         137.0822  141.3407  163.1497 C.3     1  UNL1        0.0051
     26 H         139.4376  145.1603  162.7183 H       1  UNL1        0.1233
     27 C         142.0654  143.4559  160.5342 C.3     1  UNL1        0.1339
     28 N         141.5895  144.2551  159.3575 N.am    1  UNL1       -0.2250
     29 C         142.1462  144.1927  157.9660 C.2     1  UNL1        0.2316
     30 O         143.2766  143.3200  157.5070 O.2     1  UNL1       -0.2745
     31 C         141.3741  145.1561  157.1142 C.3     1  UNL1        0.0862
     32 C         140.3402  145.8140  157.9791 C.3     1  UNL1        0.0862
     33 C         140.4733  145.2571  159.3657 C.2     1  UNL1        0.2316
     34 O         139.6371  145.6359  160.5519 O.2     1  UNL1       -0.2745
     35 C         140.4450  146.1772  156.5276 C.3     1  UNL1        0.0173
     36 C         139.3471  147.1949  156.4338 C.3     1  UNL1        0.0010
     37 C         140.9311  146.1870  155.1086 C.3     1  UNL1        0.0010
@<TRIPOS>BOND
     1    10    11    1
     2    11    12   ar
     3    12    13   ar
     4    13    14    1
     5    13    15   ar
     6    15    16   ar
     7    16     1    1
     8     1     2   ar
     9     2     3   ar
    10     3     4   ar
    11     4     5   ar
    12     5     6   ar
    13     6     7   ar
    14     7    27    1
    15    27    28    1
    16    28    29   am
    17    29    30    2
    18    29    31    1
    19    31    32    1
    20    32    33    1
    21    33    34    2
    22    32    35    1
    23    35    36    1
    24    35    37    1
    25     7     8   ar
    26     8     9   ar
    27    16    17   ar
    28    17    18    1
    29    19    18    1
    30    19    20    1
    31    20    21    1
    32    21    22    1
    33    22    23    1
    34    23    24    1
    35    24    25    1
    36    17    11   ar
    37    24    19    1
    38     9     1   ar
    39     9     5   ar
    40    33    28   am
    41    35    31    1
    42    22    26    1
@<TRIPOS>MOLECULE
*****
 37 42 0 0 0
SMALL
GASTEIGER

@<TRIPOS>ATOM
      1 C         141.3480  140.9969  166.2574 C.ar    1  UNL1        0.0119
      2 C         141.2288  141.2440  167.7321 C.ar    1  UNL1        0.0213
      3 C         140.1650  140.5454  168.5259 C.ar    1  UNL1        0.0989
      4 N         139.2204  139.5998  167.8451 N.ar    1  UNL1       -0.2433
      5 C         139.3396  139.3527  166.3704 C.ar    1  UNL1        0.0875
      6 C         138.5578  138.4819  165.4322 C.ar    1  UNL1        0.0235
      7 C         139.1383  138.6423  164.0584 C.ar    1  UNL1        0.0292
      8 S         140.2791  139.6122  164.1476 S.2     1  UNL1       -0.0880
      9 C         140.4035  140.0512  165.5766 C.ar    1  UNL1        0.0469
     10 C         142.9949  145.1675  163.6316 C.3     1  UNL1        0.0342
     11 C         143.2353  143.7808  164.1506 C.ar    1  UNL1        0.0129
     12 C         144.5395  143.0927  163.8756 C.ar    1  UNL1        0.0101
     13 C         144.7799  141.7060  164.3946 C.ar    1  UNL1        0.0576
     14 CL        146.0841  141.0179  164.1196 Cl      1  UNL1       -0.0823
     15 C         143.7160  141.0074  165.1885 C.ar    1  UNL1        0.0144
     16 C         142.4119  141.6955  165.4635 C.ar    1  UNL1        0.0351
     17 C         142.1715  143.0822  164.9445 C.ar    1  UNL1        0.1343
     18 O         140.8673  143.7703  165.2195 O.3     1  UNL1       -0.4794
     19 C         139.7589  143.7075  164.2107 C.3     1  UNL1        0.1685
     20 C         139.9703  142.9953  162.9076 C.3     1  UNL1        0.0606
     21 C         138.8619  142.9325  161.8988 C.3     1  UNL1        0.0723
     22 N         137.5421  143.5819  162.1932 N.3     1  UNL1       -0.2973
     23 C         137.3308  144.2941  163.4964 C.3     1  UNL1        0.0721
     24 C         138.4392  144.3569  164.5051 C.3     1  UNL1        0.0558
     25 C         138.2279  145.0690  165.8082 C.3     1  UNL1        0.0051
     26 H         136.8349  142.8488  162.1403 H       1  UNL1        0.1233
     27 C         138.6618  137.9536  162.8139 C.3     1  UNL1        0.1339
     28 N         139.1779  138.3854  161.4733 N.am    1  UNL1       -0.2250
     29 C         140.5466  138.1099  160.9249 C.2     1  UNL1        0.2316
     30 O         141.6395  137.3541  161.6208 O.2     1  UNL1       -0.2745
     31 C         140.6305  138.7227  159.5584 C.3     1  UNL1        0.0862
     32 C         139.3137  139.3771  159.2623 C.3     1  UNL1        0.0862
     33 C         138.4159  139.1686  160.4458 C.2     1  UNL1        0.2316
     34 O         137.0040  139.6575  160.5784 O.2     1  UNL1       -0.2745
     35 C         140.4190  139.4239  158.2494 C.3     1  UNL1        0.0173
     36 C         139.7420  140.2027  157.1608 C.3     1  UNL1        0.0010
     37 C         141.7595  139.2002  157.6145 C.3     1  UNL1        0.0010
@<TRIPOS>BOND
     1    10    11    1
     2    11    12   ar
     3    12    13   ar
     4    13    14    1
     5    13    15   ar
     6    15    16   ar
     7    16     1    1
     8     1     2   ar
     9     2     3   ar
    10     3     4   ar
    11     4     5   ar
    12     5     6   ar
    13     6     7   ar
    14     7    27    1
    15    27    28    1
    16    28    29   am
    17    29    30    2
    18    29    31    1
    19    31    32    1
    20    32    33    1
    21    33    34    2
    22    32    35    1
    23    35    36    1
    24    35    37    1
    25     7     8   ar
    26     8     9   ar
    27    16    17   ar
    28    17    18    1
    29    19    18    1
    30    19    20    1
    31    20    21    1
    32    21    22    1
    33    22    23    1
    34    23    24    1
    35    24    25    1
    36    17    11   ar
    37    24    19    1
    38     9     1   ar
    39     9     5   ar
    40    33    28   am
    41    35    31    1
    42    22    26    1
@<TRIPOS>MOLECULE
*****
 37 42 0 0 0
SMALL
GASTEIGER

@<TRIPOS>ATOM
      1 C         138.8273  141.9110  163.9903 C.ar    1  UNL1        0.0119
      2 C         137.9618  143.1347  163.9324 C.ar    1  UNL1        0.0213
      3 C         137.8238  143.8956  162.6471 C.ar    1  UNL1        0.0989
      4 N         138.5513  143.4327  161.4197 N.ar    1  UNL1       -0.2433
      5 C         139.4169  142.2091  161.4776 C.ar    1  UNL1        0.0875
      6 C         140.2490  141.5181  160.4384 C.ar    1  UNL1        0.0235
      7 C         140.9013  140.3302  161.0813 C.ar    1  UNL1        0.0292
      8 S         140.4723  140.2870  162.5180 S.2     1  UNL1       -0.0880
      9 C         139.5548  141.4482  162.7629 C.ar    1  UNL1        0.0469
     10 C         140.9993  141.3514  168.6774 C.3     1  UNL1        0.0342
     11 C         140.0513  140.8704  167.6192 C.ar    1  UNL1        0.0129
     12 C         139.2414  139.6284  167.8463 C.ar    1  UNL1        0.0101
     13 C         138.2934  139.1473  166.7880 C.ar    1  UNL1        0.0576
     14 CL        137.4835  137.9054  167.0151 Cl      1  UNL1       -0.0823
     15 C         138.1554  139.9082  165.5027 C.ar    1  UNL1        0.0144
     16 C         138.9653  141.1501  165.2756 C.ar    1  UNL1        0.0351
     17 C         139.9133  141.6312  166.3339 C.ar    1  UNL1        0.1343
     18 O         140.7232  142.8732  166.1068 O.3     1  UNL1       -0.4794
     19 C         141.9694  142.8141  165.2740 C.3     1  UNL1        0.1685
     20 C         142.9846  141.7372  165.5187 C.3     1  UNL1        0.0606
     21 C         144.2308  141.6780  164.6859 C.3     1  UNL1        0.0723
     22 N         144.4617  142.6958  163.6084 N.3     1  UNL1       -0.2973
     23 C         143.4466  143.7726  163.3637 C.3     1  UNL1        0.0721
     24 C         142.2004  143.8317  164.1966 C.3     1  UNL1        0.0558
     25 C         141.1853  144.9085  163.9519 C.3     1  UNL1        0.0051
     26 H         144.5615  142.1809  162.7335 H       1  UNL1        0.1233
     27 C         141.8211  139.3564  160.4061 C.3     1  UNL1        0.1339
     28 N         142.7446  139.8257  159.3213 N.am    1  UNL1       -0.2250
     29 C         142.7487  139.3484  157.8992 C.2     1  UNL1        0.2316
     30 O         141.8300  138.3180  157.3124 O.2     1  UNL1       -0.2745
     31 C         143.8328  140.0823  157.1671 C.3     1  UNL1        0.0862
     32 C         144.4987  141.0132  158.1366 C.3     1  UNL1        0.0862
     33 C         143.8261  140.8546  159.4680 C.2     1  UNL1        0.2316
     34 O         144.1741  141.5949  160.7253 O.2     1  UNL1       -0.2745
     35 C         144.9655  140.9542  156.7124 C.3     1  UNL1        0.0173
     36 C         146.0693  141.9689  156.7577 C.3     1  UNL1        0.0010
     37 C         145.0491  140.5427  155.2723 C.3     1  UNL1        0.0010
@<TRIPOS>BOND
     1    10    11    1
     2    11    12   ar
     3    12    13   ar
     4    13    14    1
     5    13    15   ar
     6    15    16   ar
     7    16     1    1
     8     1     2   ar
     9     2     3   ar
    10     3     4   ar
    11     4     5   ar
    12     5     6   ar
    13     6     7   ar
    14     7    27    1
    15    27    28    1
    16    28    29   am
    17    29    30    2
    18    29    31    1
    19    31    32    1
    20    32    33    1
    21    33    34    2
    22    32    35    1
    23    35    36    1
    24    35    37    1
    25     7     8   ar
    26     8     9   ar
    27    16    17   ar
    28    17    18    1
    29    19    18    1
    30    19    20    1
    31    20    21    1
    32    21    22    1
    33    22    23    1
    34    23    24    1
    35    24    25    1
    36    17    11   ar
    37    24    19    1
    38     9     1   ar
    39     9     5   ar
    40    33    28   am
    41    35    31    1
    42    22    26    1
@<TRIPOS>MOLECULE
*****
 37 42 0 0 0
SMALL
GASTEIGER

@<TRIPOS>ATOM
      1 C         138.8135  142.0420  164.0824 C.ar    1  UNL1        0.0119
      2 C         137.8843  143.2196  164.0748 C.ar    1  UNL1        0.0213
      3 C         137.7204  144.0375  162.8282 C.ar    1  UNL1        0.0989
      4 N         138.4855  143.6779  161.5892 N.ar    1  UNL1       -0.2433
      5 C         139.4146  142.5003  161.5967 C.ar    1  UNL1        0.0875
      6 C         140.2942  141.9090  160.5353 C.ar    1  UNL1        0.0235
      7 C         141.0018  140.7256  161.1259 C.ar    1  UNL1        0.0292
      8 S         140.5596  140.5855  162.5524 S.2     1  UNL1       -0.0880
      9 C         139.5786  141.6824  162.8433 C.ar    1  UNL1        0.0469
     10 C         141.0979  141.2602  168.6835 C.3     1  UNL1        0.0342
     11 C         140.1197  140.8332  167.6295 C.ar    1  UNL1        0.0129
     12 C         139.3056  139.5881  167.8223 C.ar    1  UNL1        0.0101
     13 C         138.3274  139.1610  166.7683 C.ar    1  UNL1        0.0576
     14 CL        137.5133  137.9161  166.9610 Cl      1  UNL1       -0.0823
     15 C         138.1634  139.9790  165.5217 C.ar    1  UNL1        0.0144
     16 C         138.9775  141.2240  165.3290 C.ar    1  UNL1        0.0351
     17 C         139.9557  141.6511  166.3829 C.ar    1  UNL1        0.1343
     18 O         140.7698  142.8961  166.1902 O.3     1  UNL1       -0.4794
     19 C         142.0111  142.8578  165.3490 C.3     1  UNL1        0.1685
     20 C         143.0493  141.8026  165.5917 C.3     1  UNL1        0.0606
     21 C         144.2906  141.7642  164.7504 C.3     1  UNL1        0.0723
     22 N         144.4938  142.7811  163.6665 N.3     1  UNL1       -0.2973
     23 C         143.4556  143.8363  163.4239 C.3     1  UNL1        0.0721
     24 C         142.2143  143.8746  164.2651 C.3     1  UNL1        0.0558
     25 C         141.1762  144.9297  164.0225 C.3     1  UNL1        0.0051
     26 H         144.5977  142.2641  162.7934 H       1  UNL1        0.1233
     27 C         141.9800  139.8381  160.4149 C.3     1  UNL1        0.1339
     28 N         141.5826  139.1531  159.1410 N.am    1  UNL1       -0.2250
     29 C         140.2304  138.5823  158.8316 C.2     1  UNL1        0.2316
     30 O         139.0382  138.5963  159.7417 O.2     1  UNL1       -0.2745
     31 C         140.2797  137.9950  157.4522 C.3     1  UNL1        0.0862
     32 C         141.6624  138.2028  156.9091 C.3     1  UNL1        0.0862
     33 C         142.4677  138.9185  157.9529 C.2     1  UNL1        0.2316
     34 O         143.9055  139.3279  157.8300 O.2     1  UNL1       -0.2745
     35 C         140.6269  137.5056  156.0774 C.3     1  UNL1        0.0173
     36 C         141.4307  137.2245  154.8426 C.3     1  UNL1        0.0010
     37 C         139.3123  136.9061  155.6746 C.3     1  UNL1        0.0010
@<TRIPOS>BOND
     1    10    11    1
     2    11    12   ar
     3    12    13   ar
     4    13    14    1
     5    13    15   ar
     6    15    16   ar
     7    16     1    1
     8     1     2   ar
     9     2     3   ar
    10     3     4   ar
    11     4     5   ar
    12     5     6   ar
    13     6     7   ar
    14     7    27    1
    15    27    28    1
    16    28    29   am
    17    29    30    2
    18    29    31    1
    19    31    32    1
    20    32    33    1
    21    33    34    2
    22    32    35    1
    23    35    36    1
    24    35    37    1
    25     7     8   ar
    26     8     9   ar
    27    16    17   ar
    28    17    18    1
    29    19    18    1
    30    19    20    1
    31    20    21    1
    32    21    22    1
    33    22    23    1
    34    23    24    1
    35    24    25    1
    36    17    11   ar
    37    24    19    1
    38     9     1   ar
    39     9     5   ar
    40    33    28   am
    41    35    31    1
    42    22    26    1
@<TRIPOS>MOLECULE
*****
 37 42 0 0 0
SMALL
GASTEIGER

@<TRIPOS>ATOM
      1 C         139.6685  141.0305  165.1864 C.ar    1  UNL1        0.0119
      2 C         138.4021  140.2352  165.0692 C.ar    1  UNL1        0.0213
      3 C         137.7374  140.0759  163.7341 C.ar    1  UNL1        0.0989
      4 N         138.3390  140.7119  162.5161 N.ar    1  UNL1       -0.2433
      5 C         139.6054  141.5071  162.6332 C.ar    1  UNL1        0.0875
      6 C         140.4258  142.2438  161.6162 C.ar    1  UNL1        0.0235
      7 C         141.5975  142.8584  162.3228 C.ar    1  UNL1        0.0292
      8 S         141.5014  142.5015  163.7765 S.2     1  UNL1       -0.0880
      9 C         140.2702  141.6664  163.9684 C.ar    1  UNL1        0.0469
     10 C         142.8424  139.2148  168.8782 C.3     1  UNL1        0.0342
     11 C         141.9203  140.2819  168.3675 C.ar    1  UNL1        0.0129
     12 C         141.6629  141.5084  169.1919 C.ar    1  UNL1        0.0101
     13 C         140.7408  142.5755  168.6812 C.ar    1  UNL1        0.0576
     14 CL        140.4834  143.8019  169.5056 Cl      1  UNL1       -0.0823
     15 C         140.0760  142.4162  167.3460 C.ar    1  UNL1        0.0144
     16 C         140.3333  141.1898  166.5216 C.ar    1  UNL1        0.0351
     17 C         141.2555  140.1226  167.0323 C.ar    1  UNL1        0.1343
     18 O         141.5128  138.8962  166.2079 O.3     1  UNL1       -0.4794
     19 C         142.4826  138.9508  165.0649 C.3     1  UNL1        0.1685
     20 C         143.8102  139.6270  165.2393 C.3     1  UNL1        0.0606
     21 C         144.7800  139.6816  164.0963 C.3     1  UNL1        0.0723
     22 N         144.4222  139.0599  162.7788 N.3     1  UNL1       -0.2973
     23 C         143.0947  138.3837  162.6044 C.3     1  UNL1        0.0721
     24 C         142.1249  138.3292  163.7475 C.3     1  UNL1        0.0558
     25 C         140.7974  137.6530  163.5731 C.3     1  UNL1        0.0051
     26 H         145.1374  138.3605  162.5794 H       1  UNL1        0.1233
     27 C         142.6761  143.6847  161.6871 C.3     1  UNL1        0.1339
     28 N         143.2272  143.2962  160.3473 N.am    1  UNL1       -0.2250
     29 C         144.3997  142.3927  160.1044 C.2     1  UNL1        0.2316
     30 O         145.2269  141.7190  161.1589 O.2     1  UNL1       -0.2745
     31 C         144.5997  142.2811  158.6220 C.3     1  UNL1        0.0862
     32 C         143.5509  143.1156  157.9487 C.3     1  UNL1        0.0862
     33 C         142.7026  143.7430  159.0150 C.2     1  UNL1        0.2316
     34 O         141.5347  144.6567  158.7886 O.2     1  UNL1       -0.2745
     35 C         144.5525  142.3619  157.1250 C.3     1  UNL1        0.0173
     36 C         144.1033  142.7515  155.7479 C.3     1  UNL1        0.0010
     37 C         145.7102  141.4729  156.7795 C.3     1  UNL1        0.0010
@<TRIPOS>BOND
     1    10    11    1
     2    11    12   ar
     3    12    13   ar
     4    13    14    1
     5    13    15   ar
     6    15    16   ar
     7    16     1    1
     8     1     2   ar
     9     2     3   ar
    10     3     4   ar
    11     4     5   ar
    12     5     6   ar
    13     6     7   ar
    14     7    27    1
    15    27    28    1
    16    28    29   am
    17    29    30    2
    18    29    31    1
    19    31    32    1
    20    32    33    1
    21    33    34    2
    22    32    35    1
    23    35    36    1
    24    35    37    1
    25     7     8   ar
    26     8     9   ar
    27    16    17   ar
    28    17    18    1
    29    19    18    1
    30    19    20    1
    31    20    21    1
    32    21    22    1
    33    22    23    1
    34    23    24    1
    35    24    25    1
    36    17    11   ar
    37    24    19    1
    38     9     1   ar
    39     9     5   ar
    40    33    28   am
    41    35    31    1
    42    22    26    1
@<TRIPOS>MOLECULE
*****
 37 42 0 0 0
SMALL
GASTEIGER

@<TRIPOS>ATOM
      1 C         140.3111  142.3543  165.9882 C.ar    1  UNL1        0.0119
      2 C         140.3633  142.7164  167.4429 C.ar    1  UNL1        0.0213
      3 C         140.0114  141.6947  168.4831 C.ar    1  UNL1        0.0989
      4 N         139.6072  140.3109  168.0687 N.ar    1  UNL1       -0.2433
      5 C         139.5550  139.9488  166.6141 C.ar    1  UNL1        0.0875
      6 C         139.1957  138.6744  165.9092 C.ar    1  UNL1        0.0235
      7 C         139.3256  138.9085  164.4333 C.ar    1  UNL1        0.0292
      8 S         139.7652  140.3275  164.2259 S.2     1  UNL1       -0.0880
      9 C         139.9070  140.9704  165.5738 C.ar    1  UNL1        0.0469
     10 C         143.8893  144.8967  163.2073 C.3     1  UNL1        0.0342
     11 C         142.4522  144.6472  163.5574 C.ar    1  UNL1        0.0129
     12 C         141.3671  145.4194  162.8672 C.ar    1  UNL1        0.0101
     13 C         139.9300  145.1698  163.2173 C.ar    1  UNL1        0.0576
     14 CL        138.8450  145.9420  162.5271 Cl      1  UNL1       -0.0823
     15 C         139.5781  144.1481  164.2576 C.ar    1  UNL1        0.0144
     16 C         140.6631  143.3760  164.9478 C.ar    1  UNL1        0.0351
     17 C         142.1002  143.6255  164.5977 C.ar    1  UNL1        0.1343
     18 O         143.1853  142.8533  165.2880 O.3     1  UNL1       -0.4794
     19 C         143.6697  141.5579  164.7072 C.3     1  UNL1        0.1685
     20 C         144.1791  141.5122  163.2970 C.3     1  UNL1        0.0606
     21 C         144.6635  140.2169  162.7162 C.3     1  UNL1        0.0723
     22 N         144.6385  138.9672  163.5456 N.3     1  UNL1       -0.2973
     23 C         144.1290  139.0129  164.9556 C.3     1  UNL1        0.0721
     24 C         143.6446  140.3083  165.5364 C.3     1  UNL1        0.0558
     25 C         143.1352  140.3540  166.9465 C.3     1  UNL1        0.0051
     26 H         145.5980  138.6241  163.5901 H       1  UNL1        0.1233
     27 C         139.0621  137.9004  163.3541 C.3     1  UNL1        0.1339
     28 N         139.5124  138.1707  161.9491 N.am    1  UNL1       -0.2250
     29 C         140.9131  138.0333  161.4303 C.2     1  UNL1        0.2316
     30 O         142.1094  137.6014  162.2254 O.2     1  UNL1       -0.2745
     31 C         140.9075  138.4036  159.9768 C.3     1  UNL1        0.0862
     32 C         139.5033  138.7699  159.5972 C.3     1  UNL1        0.0862
     33 C         138.6411  138.6260  160.8162 C.2     1  UNL1        0.2316
     34 O         137.1665  138.8909  160.8894 O.2     1  UNL1       -0.2745
     35 C         140.5954  138.8209  158.5702 C.3     1  UNL1        0.0173
     36 C         139.8092  139.2753  157.3763 C.3     1  UNL1        0.0010
     37 C         141.9605  138.7141  157.9578 C.3     1  UNL1        0.0010
@<TRIPOS>BOND
     1    10    11    1
     2    11    12   ar
     3    12    13   ar
     4    13    14    1
     5    13    15   ar
     6    15    16   ar
     7    16     1    1
     8     1     2   ar
     9     2     3   ar
    10     3     4   ar
    11     4     5   ar
    12     5     6   ar
    13     6     7   ar
    14     7    27    1
    15    27    28    1
    16    28    29   am
    17    29    30    2
    18    29    31    1
    19    31    32    1
    20    32    33    1
    21    33    34    2
    22    32    35    1
    23    35    36    1
    24    35    37    1
    25     7     8   ar
    26     8     9   ar
    27    16    17   ar
    28    17    18    1
    29    19    18    1
    30    19    20    1
    31    20    21    1
    32    21    22    1
    33    22    23    1
    34    23    24    1
    35    24    25    1
    36    17    11   ar
    37    24    19    1
    38     9     1   ar
    39     9     5   ar
    40    33    28   am
    41    35    31    1
    42    22    26    1
@<TRIPOS>MOLECULE
*****
 37 42 0 0 0
SMALL
GASTEIGER

@<TRIPOS>ATOM
      1 C         140.0348  142.9037  164.7973 C.ar    1  UNL1        0.0119
      2 C         139.1506  144.1141  164.7421 C.ar    1  UNL1        0.0213
      3 C         139.2621  145.0725  163.5937 C.ar    1  UNL1        0.0989
      4 N         140.2578  144.8206  162.5005 N.ar    1  UNL1       -0.2433
      5 C         141.1421  143.6103  162.5557 C.ar    1  UNL1        0.0875
      6 C         142.2088  143.1035  161.6309 C.ar    1  UNL1        0.0235
      7 C         142.7566  141.8318  162.2077 C.ar    1  UNL1        0.0292
      8 S         142.0284  141.5526  163.4890 S.2     1  UNL1       -0.0880
      9 C         141.0306  142.6518  163.7041 C.ar    1  UNL1        0.0469
     10 C         137.8781  138.6973  166.9547 C.3     1  UNL1        0.0342
     11 C         138.8450  139.8419  167.0244 C.ar    1  UNL1        0.0129
     12 C         139.7004  140.0281  168.2425 C.ar    1  UNL1        0.0101
     13 C         140.6673  141.1728  168.3122 C.ar    1  UNL1        0.0576
     14 CL        141.5227  141.3589  169.5302 Cl      1  UNL1       -0.0823
     15 C         140.7788  142.1313  167.1637 C.ar    1  UNL1        0.0144
     16 C         139.9234  141.9451  165.9457 C.ar    1  UNL1        0.0351
     17 C         138.9565  140.8005  165.8760 C.ar    1  UNL1        0.1343
     18 O         138.1011  140.6143  164.6579 O.3     1  UNL1       -0.4794
     19 C         138.6107  139.8091  163.4995 C.3     1  UNL1        0.1685
     20 C         139.1742  138.4381  163.7293 C.3     1  UNL1        0.0606
     21 C         139.6839  137.6329  162.5709 C.3     1  UNL1        0.0723
     22 N         139.6300  138.1987  161.1827 N.3     1  UNL1       -0.2973
     23 C         139.0665  139.5697  160.9530 C.3     1  UNL1        0.0721
     24 C         138.5569  140.3749  162.1114 C.3     1  UNL1        0.0558
     25 C         137.9934  141.7459  161.8817 C.3     1  UNL1        0.0051
     26 H         139.0722  137.5536  160.6232 H       1  UNL1        0.1233
     27 C         143.8420  140.9875  161.6084 C.3     1  UNL1        0.1339
     28 N         143.5748  140.1956  160.3629 N.am    1  UNL1       -0.2250
     29 C         143.1132  138.7695  160.3068 C.2     1  UNL1        0.2316
     30 O         142.8378  137.8849  161.4865 O.2     1  UNL1       -0.2745
     31 C         142.9753  138.3832  158.8640 C.3     1  UNL1        0.0862
     32 C         143.3517  139.5706  158.0283 C.3     1  UNL1        0.0862
     33 C         143.7222  140.6907  158.9547 C.2     1  UNL1        0.2316
     34 O         144.1628  142.0647  158.5447 O.2     1  UNL1       -0.2745
     35 C         142.9321  138.2911  157.3674 C.3     1  UNL1        0.0173
     36 C         143.0487  138.6916  155.9267 C.3     1  UNL1        0.0010
     37 C         142.4720  136.8724  157.2070 C.3     1  UNL1        0.0010
@<TRIPOS>BOND
     1    10    11    1
     2    11    12   ar
     3    12    13   ar
     4    13    14    1
     5    13    15   ar
     6    15    16   ar
     7    16     1    1
     8     1     2   ar
     9     2     3   ar
    10     3     4   ar
    11     4     5   ar
    12     5     6   ar
    13     6     7   ar
    14     7    27    1
    15    27    28    1
    16    28    29   am
    17    29    30    2
    18    29    31    1
    19    31    32    1
    20    32    33    1
    21    33    34    2
    22    32    35    1
    23    35    36    1
    24    35    37    1
    25     7     8   ar
    26     8     9   ar
    27    16    17   ar
    28    17    18    1
    29    19    18    1
    30    19    20    1
    31    20    21    1
    32    21    22    1
    33    22    23    1
    34    23    24    1
    35    24    25    1
    36    17    11   ar
    37    24    19    1
    38     9     1   ar
    39     9     5   ar
    40    33    28   am
    41    35    31    1
    42    22    26    1
@<TRIPOS>MOLECULE
*****
 37 42 0 0 0
SMALL
GASTEIGER

@<TRIPOS>ATOM
      1 C         142.4477  141.6810  166.1655 C.ar    1  UNL1        0.0119
      2 C         142.6128  141.7861  167.6527 C.ar    1  UNL1        0.0213
      3 C         142.8884  140.5558  168.4654 C.ar    1  UNL1        0.0989
      4 N         142.9988  139.2206  167.7910 N.ar    1  UNL1       -0.2433
      5 C         142.8338  139.1155  166.3038 C.ar    1  UNL1        0.0875
      6 C         142.8889  137.9445  165.3680 C.ar    1  UNL1        0.0235
      7 C         142.6474  138.4511  163.9769 C.ar    1  UNL1        0.0292
      8 S         142.4430  139.9351  164.0530 S.2     1  UNL1       -0.0880
      9 C         142.5582  140.3458  165.4911 C.ar    1  UNL1        0.0469
     10 C         139.0766  145.0985  164.1764 C.3     1  UNL1        0.0342
     11 C         140.4866  144.6200  164.3582 C.ar    1  UNL1        0.0129
     12 C         141.6210  145.3718  163.7272 C.ar    1  UNL1        0.0101
     13 C         143.0309  144.8932  163.9090 C.ar    1  UNL1        0.0576
     14 CL        144.1653  145.6449  163.2780 Cl      1  UNL1       -0.0823
     15 C         143.3065  143.6630  164.7218 C.ar    1  UNL1        0.0144
     16 C         142.1721  142.9113  165.3527 C.ar    1  UNL1        0.0351
     17 C         140.7622  143.3898  165.1710 C.ar    1  UNL1        0.1343
     18 O         139.6278  142.6381  165.8020 O.3     1  UNL1       -0.4794
     19 C         139.0745  141.4148  165.1329 C.3     1  UNL1        0.1685
     20 C         138.6521  141.4728  163.6948 C.3     1  UNL1        0.0606
     21 C         138.0988  140.2496  163.0257 C.3     1  UNL1        0.0723
     22 N         137.9679  138.9684  163.7948 N.3     1  UNL1       -0.2973
     23 C         138.3903  138.9105  165.2329 C.3     1  UNL1        0.0721
     24 C         138.9436  140.1337  165.9020 C.3     1  UNL1        0.0558
     25 C         139.3660  140.0758  167.3401 C.3     1  UNL1        0.0051
     26 H         138.5192  138.2689  163.2976 H       1  UNL1        0.1233
     27 C         142.6159  137.6195  162.7289 C.3     1  UNL1        0.1339
     28 N         142.0716  138.1973  161.4562 N.am    1  UNL1       -0.2250
     29 C         142.8681  138.8925  160.3921 C.2     1  UNL1        0.2316
     30 O         144.3487  139.1321  160.4139 O.2     1  UNL1       -0.2745
     31 C         141.9240  139.3063  159.3023 C.3     1  UNL1        0.0862
     32 C         140.5441  138.8667  159.6929 C.3     1  UNL1        0.0862
     33 C         140.6353  138.1813  161.0241 C.2     1  UNL1        0.2316
     34 O         139.4911  137.5846  161.7888 O.2     1  UNL1       -0.2745
     35 C         140.7626  139.5869  158.3954 C.3     1  UNL1        0.0173
     36 C         139.3557  139.6215  157.8765 C.3     1  UNL1        0.0010
     37 C         141.4698  140.2950  157.2781 C.3     1  UNL1        0.0010
@<TRIPOS>BOND
     1    10    11    1
     2    11    12   ar
     3    12    13   ar
     4    13    14    1
     5    13    15   ar
     6    15    16   ar
     7    16     1    1
     8     1     2   ar
     9     2     3   ar
    10     3     4   ar
    11     4     5   ar
    12     5     6   ar
    13     6     7   ar
    14     7    27    1
    15    27    28    1
    16    28    29   am
    17    29    30    2
    18    29    31    1
    19    31    32    1
    20    32    33    1
    21    33    34    2
    22    32    35    1
    23    35    36    1
    24    35    37    1
    25     7     8   ar
    26     8     9   ar
    27    16    17   ar
    28    17    18    1
    29    19    18    1
    30    19    20    1
    31    20    21    1
    32    21    22    1
    33    22    23    1
    34    23    24    1
    35    24    25    1
    36    17    11   ar
    37    24    19    1
    38     9     1   ar
    39     9     5   ar
    40    33    28   am
    41    35    31    1
    42    22    26    1
@<TRIPOS>MOLECULE
*****
 37 42 0 0 0
SMALL
GASTEIGER

@<TRIPOS>ATOM
      1 C         142.3055  141.6899  161.2070 C.ar    1  UNL1        0.0119
      2 C         142.9325  141.5916  159.8479 C.ar    1  UNL1        0.0213
      3 C         143.0728  140.2551  159.1816 C.ar    1  UNL1        0.0989
      4 N         142.5862  139.0168  159.8744 N.ar    1  UNL1       -0.2433
      5 C         141.9593  139.1151  161.2335 C.ar    1  UNL1        0.0875
      6 C         141.3912  138.0762  162.1543 C.ar    1  UNL1        0.0235
      7 C         140.8997  138.7706  163.3898 C.ar    1  UNL1        0.0292
      8 S         141.1641  140.2388  163.2325 S.2     1  UNL1       -0.0880
      9 C         141.8189  140.4516  161.8998 C.ar    1  UNL1        0.0469
     10 C         139.6752  146.1166  161.9038 C.3     1  UNL1        0.0342
     11 C         140.8500  145.2398  162.2218 C.ar    1  UNL1        0.0129
     12 C         141.8844  145.6995  163.2060 C.ar    1  UNL1        0.0101
     13 C         143.0592  144.8226  163.5240 C.ar    1  UNL1        0.0576
     14 CL        144.0936  145.2823  164.5082 Cl      1  UNL1       -0.0823
     15 C         143.1995  143.4861  162.8576 C.ar    1  UNL1        0.0144
     16 C         142.1652  143.0264  161.8734 C.ar    1  UNL1        0.0351
     17 C         140.9904  143.9033  161.5554 C.ar    1  UNL1        0.1343
     18 O         139.9560  143.4435  160.5712 O.3     1  UNL1       -0.4794
     19 C         138.9853  142.3652  160.9520 C.3     1  UNL1        0.1685
     20 C         138.2698  142.4311  162.2687 C.3     1  UNL1        0.0606
     21 C         137.2991  141.3528  162.6495 C.3     1  UNL1        0.0723
     22 N         137.0439  140.2086  161.7136 N.3     1  UNL1       -0.2973
     23 C         137.7594  140.1429  160.3969 C.3     1  UNL1        0.0721
     24 C         138.7301  141.2212  160.0161 C.3     1  UNL1        0.0558
     25 C         139.4456  141.1554  158.6994 C.3     1  UNL1        0.0051
     26 H         136.0452  140.2151  161.5060 H       1  UNL1        0.1233
     27 C         140.2568  138.1125  164.5745 C.3     1  UNL1        0.1339
     28 N         140.2424  138.8086  165.9030 N.am    1  UNL1       -0.2250
     29 C         141.4466  139.2602  166.6750 C.2     1  UNL1        0.2316
     30 O         142.8768  139.0948  166.2539 O.2     1  UNL1       -0.2745
     31 C         140.9697  139.9061  167.9420 C.3     1  UNL1        0.0862
     32 C         139.4707  139.8538  167.9531 C.3     1  UNL1        0.0862
     33 C         139.0211  139.1755  166.6929 C.2     1  UNL1        0.2316
     34 O         137.5999  138.9106  166.2930 O.2     1  UNL1       -0.2745
     35 C         140.2077  140.4829  169.0981 C.3     1  UNL1        0.0173
     36 C         139.0501  140.8903  169.9606 C.3     1  UNL1        0.0010
     37 C         141.3467  140.9704  169.9436 C.3     1  UNL1        0.0010
@<TRIPOS>BOND
     1    10    11    1
     2    11    12   ar
     3    12    13   ar
     4    13    14    1
     5    13    15   ar
     6    15    16   ar
     7    16     1    1
     8     1     2   ar
     9     2     3   ar
    10     3     4   ar
    11     4     5   ar
    12     5     6   ar
    13     6     7   ar
    14     7    27    1
    15    27    28    1
    16    28    29   am
    17    29    30    2
    18    29    31    1
    19    31    32    1
    20    32    33    1
    21    33    34    2
    22    32    35    1
    23    35    36    1
    24    35    37    1
    25     7     8   ar
    26     8     9   ar
    27    16    17   ar
    28    17    18    1
    29    19    18    1
    30    19    20    1
    31    20    21    1
    32    21    22    1
    33    22    23    1
    34    23    24    1
    35    24    25    1
    36    17    11   ar
    37    24    19    1
    38     9     1   ar
    39     9     5   ar
    40    33    28   am
    41    35    31    1
    42    22    26    1
