@<TRIPOS>MOLECULE
*****
 30 34 0 0 0
SMALL
GASTEIGER

@<TRIPOS>ATOM
      1 C         141.5996  143.3832  162.7945 C.ar    1  UNL1        0.0884
      2 C         142.8717  143.7879  163.4785 C.ar    1  UNL1        0.0197
      3 C         143.3496  143.0309  164.6820 C.ar    1  UNL1        0.0030
      4 C         142.5555  141.8693  165.2015 C.ar    1  UNL1        0.0174
      5 C         143.0334  141.1123  166.4051 C.ar    1  UNL1       -0.0027
      6 C         142.2393  139.9506  166.9246 C.ar    1  UNL1       -0.0207
      7 C         140.9671  139.5460  166.2405 C.ar    1  UNL1       -0.0027
      8 C         140.4892  140.3030  165.0369 C.ar    1  UNL1        0.0188
      9 C         141.2834  141.4646  164.5175 C.ar    1  UNL1        0.0812
     10 N         140.8054  142.2216  163.3139 N.ar    1  UNL1       -0.2448
     11 C         139.1069  145.4880  162.7174 C.3     1  UNL1        0.0527
     12 C         139.9759  145.1077  161.5555 C.ar    1  UNL1        0.0674
     13 N         139.8517  145.6280  160.1541 N.ar    1  UNL1       -0.2425
     14 C         140.9207  144.9821  159.3234 C.ar    1  UNL1        0.1119
     15 S         141.7056  144.0626  160.2113 S.2     1  UNL1       -0.0653
     16 C         141.1216  144.1402  161.5909 C.ar    1  UNL1        0.0620
     17 C         141.1624  145.2149  157.8614 C.ar    1  UNL1        0.0430
     18 C         140.3105  146.1919  157.1066 C.ar    1  UNL1        0.0052
     19 C         140.5521  146.4247  155.6446 C.ar    1  UNL1        0.0207
     20 C         141.6457  145.6804  154.9374 C.ar    1  UNL1        0.0989
     21 N         142.4976  144.7034  155.6922 N.ar    1  UNL1       -0.2423
     22 C         142.2560  144.4706  157.1542 C.ar    1  UNL1        0.1008
     23 C         142.7172  139.1936  168.1281 C.3     1  UNL1        0.0437
     24 C         142.3438  139.6596  169.5042 C.3     1  UNL1        0.0768
     25 N         141.7106  141.0060  169.6941 N.3     1  UNL1       -0.2737
     26 C         140.2394  141.2834  169.7860 C.3     1  UNL1        0.0721
     27 C         140.0569  142.7603  169.9741 C.3     1  UNL1        0.0187
     28 C         141.4155  143.3958  169.9983 C.3     1  UNL1        0.0174
     29 C         142.4375  142.3116  169.8253 C.3     1  UNL1        0.0576
     30 C         143.9252  142.4998  169.7897 C.3     1  UNL1        0.0173
@<TRIPOS>BOND
     1    11    12    1
     2    12    13   ar
     3    13    14   ar
     4    14    17    1
     5    17    18   ar
     6    18    19   ar
     7    19    20   ar
     8    20    21   ar
     9    21    22   ar
    10    14    15   ar
    11    15    16   ar
    12    16     1    1
    13     1     2   ar
    14     2     3   ar
    15     3     4   ar
    16     4     5   ar
    17     5     6   ar
    18     6    23    1
    19    23    24    1
    20    24    25    1
    21    25    26    1
    22    26    27    1
    23    27    28    1
    24    28    29    1
    25    29    30    1
    26     6     7   ar
    27     7     8   ar
    28     8     9   ar
    29     9    10   ar
    30    16    12   ar
    31    10     1   ar
    32    22    17   ar
    33     9     4   ar
    34    29    25    1
@<TRIPOS>MOLECULE
*****
 30 34 0 0 0
SMALL
GASTEIGER

@<TRIPOS>ATOM
      1 C         141.2891  143.1101  162.6099 C.ar    1  UNL1        0.0884
      2 C         140.8630  144.1583  163.5945 C.ar    1  UNL1        0.0197
      3 C         140.4137  143.7582  164.9685 C.ar    1  UNL1        0.0030
      4 C         140.3905  142.3098  165.3579 C.ar    1  UNL1        0.0174
      5 C         139.9412  141.9096  166.7320 C.ar    1  UNL1       -0.0027
      6 C         139.9180  140.4612  167.1213 C.ar    1  UNL1       -0.0207
      7 C         140.3442  139.4130  166.1366 C.ar    1  UNL1       -0.0027
      8 C         140.7935  139.8131  164.7626 C.ar    1  UNL1        0.0188
      9 C         140.8166  141.2615  164.3732 C.ar    1  UNL1        0.0812
     10 N         141.2660  141.6617  162.9992 N.ar    1  UNL1       -0.2448
     11 C         144.2159  142.5086  161.2976 C.3     1  UNL1        0.0527
     12 C         143.0837  143.2338  160.6326 C.ar    1  UNL1        0.0674
     13 N         143.0981  143.8098  159.2477 N.ar    1  UNL1       -0.2425
     14 C         141.7616  144.4423  158.9949 C.ar    1  UNL1        0.1119
     15 S         140.9213  144.2572  160.2236 S.2     1  UNL1       -0.0653
     16 C         141.7385  143.5103  161.2358 C.ar    1  UNL1        0.0620
     17 C         141.3396  145.1378  157.7347 C.ar    1  UNL1        0.0430
     18 C         140.1162  146.0058  157.7307 C.ar    1  UNL1        0.0052
     19 C         139.6942  146.7013  156.4705 C.ar    1  UNL1        0.0207
     20 C         140.4955  146.5287  155.2143 C.ar    1  UNL1        0.0989
     21 N         141.7188  145.6608  155.2183 N.ar    1  UNL1       -0.2423
     22 C         142.1409  144.9653  156.4785 C.ar    1  UNL1        0.1008
     23 C         139.4687  140.0610  168.4953 C.3     1  UNL1        0.0437
     24 C         140.4642  139.9727  169.6139 C.3     1  UNL1        0.0768
     25 N         141.5141  141.0327  169.7690 N.3     1  UNL1       -0.2737
     26 C         142.9859  140.8562  169.5392 C.3     1  UNL1        0.0721
     27 C         143.6580  142.1697  169.8093 C.3     1  UNL1        0.0187
     28 C         142.6016  143.1580  170.2059 C.3     1  UNL1        0.0174
     29 C         141.2766  142.4553  170.1810 C.3     1  UNL1        0.0576
     30 C         139.9475  143.0677  170.5104 C.3     1  UNL1        0.0173
@<TRIPOS>BOND
     1    11    12    1
     2    12    13   ar
     3    13    14   ar
     4    14    17    1
     5    17    18   ar
     6    18    19   ar
     7    19    20   ar
     8    20    21   ar
     9    21    22   ar
    10    14    15   ar
    11    15    16   ar
    12    16     1    1
    13     1     2   ar
    14     2     3   ar
    15     3     4   ar
    16     4     5   ar
    17     5     6   ar
    18     6    23    1
    19    23    24    1
    20    24    25    1
    21    25    26    1
    22    26    27    1
    23    27    28    1
    24    28    29    1
    25    29    30    1
    26     6     7   ar
    27     7     8   ar
    28     8     9   ar
    29     9    10   ar
    30    16    12   ar
    31    10     1   ar
    32    22    17   ar
    33     9     4   ar
    34    29    25    1
@<TRIPOS>MOLECULE
*****
 30 34 0 0 0
SMALL
GASTEIGER

@<TRIPOS>ATOM
      1 C         141.7381  138.5447  159.3508 C.ar    1  UNL1        0.0884
      2 C         140.2511  138.6261  159.1718 C.ar    1  UNL1        0.0197
      3 C         139.3421  138.4271  160.3483 C.ar    1  UNL1        0.0030
      4 C         139.9201  138.1467  161.7037 C.ar    1  UNL1        0.0174
      5 C         139.0111  137.9477  162.8802 C.ar    1  UNL1       -0.0027
      6 C         139.5891  137.6674  164.2357 C.ar    1  UNL1       -0.0207
      7 C         141.0762  137.5859  164.4146 C.ar    1  UNL1       -0.0027
      8 C         141.9852  137.7849  163.2382 C.ar    1  UNL1        0.0188
      9 C         141.4072  138.0653  161.8827 C.ar    1  UNL1        0.0812
     10 N         142.3161  138.2643  160.7063 N.ar    1  UNL1       -0.2448
     11 C         142.2134  136.4267  156.9140 C.3     1  UNL1        0.0527
     12 C         142.8656  137.7701  157.0543 C.ar    1  UNL1        0.0674
     13 N         143.8508  138.3759  156.0991 N.ar    1  UNL1       -0.2425
     14 C         144.2413  139.7239  156.6288 C.ar    1  UNL1        0.1119
     15 S         143.4974  139.9511  157.9114 S.2     1  UNL1       -0.0653
     16 C         142.6472  138.7436  158.1743 C.ar    1  UNL1        0.0620
     17 C         145.2063  140.6771  155.9884 C.ar    1  UNL1        0.0430
     18 C         145.9162  141.7003  156.8245 C.ar    1  UNL1        0.0052
     19 C         146.8812  142.6536  156.1842 C.ar    1  UNL1        0.0207
     20 C         147.1362  142.5837  154.7077 C.ar    1  UNL1        0.0989
     21 N         146.4263  141.5604  153.8715 N.ar    1  UNL1       -0.2423
     22 C         145.4613  140.6072  154.5119 C.ar    1  UNL1        0.1008
     23 C         138.6801  137.4684  165.4121 C.3     1  UNL1        0.0437
     24 C         138.1161  138.6565  166.1336 C.3     1  UNL1        0.0768
     25 N         138.9465  139.8939  166.3043 N.3     1  UNL1       -0.2737
     26 C         139.9401  140.1447  167.3997 C.3     1  UNL1        0.0721
     27 C         140.5368  141.5036  167.1821 C.3     1  UNL1        0.0187
     28 C         139.9119  142.0926  165.9521 C.3     1  UNL1        0.0174
     29 C         138.9290  141.0978  165.4097 C.3     1  UNL1        0.0576
     30 C         138.0782  141.2756  164.1873 C.3     1  UNL1        0.0173
@<TRIPOS>BOND
     1    11    12    1
     2    12    13   ar
     3    13    14   ar
     4    14    17    1
     5    17    18   ar
     6    18    19   ar
     7    19    20   ar
     8    20    21   ar
     9    21    22   ar
    10    14    15   ar
    11    15    16   ar
    12    16     1    1
    13     1     2   ar
    14     2     3   ar
    15     3     4   ar
    16     4     5   ar
    17     5     6   ar
    18     6    23    1
    19    23    24    1
    20    24    25    1
    21    25    26    1
    22    26    27    1
    23    27    28    1
    24    28    29    1
    25    29    30    1
    26     6     7   ar
    27     7     8   ar
    28     8     9   ar
    29     9    10   ar
    30    16    12   ar
    31    10     1   ar
    32    22    17   ar
    33     9     4   ar
    34    29    25    1
@<TRIPOS>MOLECULE
*****
 30 34 0 0 0
SMALL
GASTEIGER

@<TRIPOS>ATOM
      1 C         139.3346  141.1503  163.5383 C.ar    1  UNL1        0.0884
      2 C         138.2917  140.5734  164.4490 C.ar    1  UNL1        0.0197
      3 C         138.6815  140.0515  165.8001 C.ar    1  UNL1        0.0030
      4 C         140.1143  140.1066  166.2406 C.ar    1  UNL1        0.0174
      5 C         140.5041  139.5847  167.5919 C.ar    1  UNL1       -0.0027
      6 C         141.9369  139.6398  168.0324 C.ar    1  UNL1       -0.0207
      7 C         142.9799  140.2168  167.1216 C.ar    1  UNL1       -0.0027
      8 C         142.5901  140.7387  165.7705 C.ar    1  UNL1        0.0188
      9 C         141.1573  140.6836  165.3300 C.ar    1  UNL1        0.0812
     10 N         140.7674  141.2054  163.9789 N.ar    1  UNL1       -0.2448
     11 C         137.8394  143.9878  162.9361 C.3     1  UNL1        0.0527
     12 C         138.2576  142.9765  161.9103 C.ar    1  UNL1        0.0674
     13 N         138.0618  143.0918  160.4276 N.ar    1  UNL1       -0.2425
     14 C         138.6282  141.8588  159.7880 C.ar    1  UNL1        0.1119
     15 S         139.1739  140.9815  160.8755 S.2     1  UNL1       -0.0653
     16 C         138.9448  141.6723  162.1871 C.ar    1  UNL1        0.0620
     17 C         138.6457  141.5563  158.3190 C.ar    1  UNL1        0.0430
     18 C         139.4109  142.4412  157.3801 C.ar    1  UNL1        0.0052
     19 C         139.4285  142.1386  155.9110 C.ar    1  UNL1        0.0207
     20 C         138.6808  140.9512  155.3809 C.ar    1  UNL1        0.0989
     21 N         137.9156  140.0664  156.3197 N.ar    1  UNL1       -0.2423
     22 C         137.8981  140.3689  157.7888 C.ar    1  UNL1        0.1008
     23 C         142.3268  139.1179  169.3835 C.3     1  UNL1        0.0437
     24 C         142.1402  139.9744  170.6008 C.3     1  UNL1        0.0768
     25 N         141.5746  141.3571  170.4655 N.3     1  UNL1       -0.2737
     26 C         140.1391  141.7455  170.6613 C.3     1  UNL1        0.0721
     27 C         140.0225  143.2226  170.4274 C.3     1  UNL1        0.0187
     28 C         141.3860  143.7470  170.0871 C.3     1  UNL1        0.0174
     29 C         142.3453  142.5940  170.1106 C.3     1  UNL1        0.0576
     30 C         143.8168  142.6656  169.8288 C.3     1  UNL1        0.0173
@<TRIPOS>BOND
     1    11    12    1
     2    12    13   ar
     3    13    14   ar
     4    14    17    1
     5    17    18   ar
     6    18    19   ar
     7    19    20   ar
     8    20    21   ar
     9    21    22   ar
    10    14    15   ar
    11    15    16   ar
    12    16     1    1
    13     1     2   ar
    14     2     3   ar
    15     3     4   ar
    16     4     5   ar
    17     5     6   ar
    18     6    23    1
    19    23    24    1
    20    24    25    1
    21    25    26    1
    22    26    27    1
    23    27    28    1
    24    28    29    1
    25    29    30    1
    26     6     7   ar
    27     7     8   ar
    28     8     9   ar
    29     9    10   ar
    30    16    12   ar
    31    10     1   ar
    32    22    17   ar
    33     9     4   ar
    34    29    25    1
@<TRIPOS>MOLECULE
*****
 30 34 0 0 0
SMALL
GASTEIGER

@<TRIPOS>ATOM
      1 C         142.7512  138.2721  159.9631 C.ar    1  UNL1        0.0884
      2 C         143.9303  139.1119  160.3560 C.ar    1  UNL1        0.0197
      3 C         144.2212  139.3648  161.8056 C.ar    1  UNL1        0.0030
      4 C         143.3330  138.7779  162.8623 C.ar    1  UNL1        0.0174
      5 C         143.6239  139.0309  164.3119 C.ar    1  UNL1       -0.0027
      6 C         142.7357  138.4439  165.3686 C.ar    1  UNL1       -0.0207
      7 C         141.5566  137.6041  164.9757 C.ar    1  UNL1       -0.0027
      8 C         141.2657  137.3512  163.5261 C.ar    1  UNL1        0.0188
      9 C         142.1539  137.9381  162.4694 C.ar    1  UNL1        0.0812
     10 N         141.8630  137.6852  161.0198 N.ar    1  UNL1       -0.2448
     11 C         141.7257  140.4875  157.7974 C.3     1  UNL1        0.0527
     12 C         141.9889  139.0375  157.5180 C.ar    1  UNL1        0.0674
     13 N         141.8270  138.3512  156.1941 N.ar    1  UNL1       -0.2425
     14 C         142.1983  136.9087  156.3713 C.ar    1  UNL1        0.1119
     15 S         142.5897  136.7035  157.8047 S.2     1  UNL1       -0.0653
     16 C         142.4603  138.0192  158.5134 C.ar    1  UNL1        0.0620
     17 C         142.1812  135.8562  155.3027 C.ar    1  UNL1        0.0430
     18 C         141.7083  136.1980  153.9208 C.ar    1  UNL1        0.0052
     19 C         141.6912  135.1455  152.8522 C.ar    1  UNL1        0.0207
     20 C         142.1469  133.7512  153.1655 C.ar    1  UNL1        0.0989
     21 N         142.6198  133.4094  154.5474 N.ar    1  UNL1       -0.2423
     22 C         142.6369  134.4619  155.6160 C.ar    1  UNL1        0.1008
     23 C         143.0266  138.6968  166.8182 C.3     1  UNL1        0.0437
     24 C         142.6460  140.0068  167.4422 C.3     1  UNL1        0.0768
     25 N         141.4896  140.0758  168.3950 N.3     1  UNL1       -0.2737
     26 C         141.5755  140.0171  169.8914 C.3     1  UNL1        0.0721
     27 C         140.1833  140.1206  170.4400 C.3     1  UNL1        0.0187
     28 C         139.2369  140.2433  169.2826 C.3     1  UNL1        0.0174
     29 C         140.0443  140.2155  168.0188 C.3     1  UNL1        0.0576
     30 C         139.5017  140.3109  166.6237 C.3     1  UNL1        0.0173
@<TRIPOS>BOND
     1    11    12    1
     2    12    13   ar
     3    13    14   ar
     4    14    17    1
     5    17    18   ar
     6    18    19   ar
     7    19    20   ar
     8    20    21   ar
     9    21    22   ar
    10    14    15   ar
    11    15    16   ar
    12    16     1    1
    13     1     2   ar
    14     2     3   ar
    15     3     4   ar
    16     4     5   ar
    17     5     6   ar
    18     6    23    1
    19    23    24    1
    20    24    25    1
    21    25    26    1
    22    26    27    1
    23    27    28    1
    24    28    29    1
    25    29    30    1
    26     6     7   ar
    27     7     8   ar
    28     8     9   ar
    29     9    10   ar
    30    16    12   ar
    31    10     1   ar
    32    22    17   ar
    33     9     4   ar
    34    29    25    1
@<TRIPOS>MOLECULE
*****
 30 34 0 0 0
SMALL
GASTEIGER

@<TRIPOS>ATOM
      1 C         140.2817  143.9906  160.0935 C.ar    1  UNL1        0.0884
      2 C         141.6784  143.9035  160.6335 C.ar    1  UNL1        0.0197
      3 C         141.9086  143.4723  162.0516 C.ar    1  UNL1        0.0030
      4 C         140.7422  143.1283  162.9297 C.ar    1  UNL1        0.0174
      5 C         140.9725  142.6971  164.3479 C.ar    1  UNL1       -0.0027
      6 C         139.8060  142.3531  165.2260 C.ar    1  UNL1       -0.0207
      7 C         138.4093  142.4403  164.6859 C.ar    1  UNL1       -0.0027
      8 C         138.1790  142.8715  163.2678 C.ar    1  UNL1        0.0188
      9 C         139.3455  143.2155  162.3897 C.ar    1  UNL1        0.0812
     10 N         139.1153  143.6466  160.9716 N.ar    1  UNL1       -0.2448
     11 C         139.6185  142.0248  157.5745 C.3     1  UNL1        0.0527
     12 C         139.7466  143.5182  157.5175 C.ar    1  UNL1        0.0674
     13 N         139.5923  144.3703  156.2927 N.ar    1  UNL1       -0.2425
     14 C         139.8018  145.8005  156.6935 C.ar    1  UNL1        0.1119
     15 S         140.0855  145.8323  158.1661 S.2     1  UNL1       -0.0653
     16 C         140.0514  144.4218  158.6754 C.ar    1  UNL1        0.0620
     17 C         139.7386  146.9900  155.7819 C.ar    1  UNL1        0.0430
     18 C         140.4569  146.9648  154.4652 C.ar    1  UNL1        0.0052
     19 C         140.3937  148.1543  153.5536 C.ar    1  UNL1        0.0207
     20 C         139.6123  149.3689  153.9586 C.ar    1  UNL1        0.0989
     21 N         138.8941  149.3941  155.2752 N.ar    1  UNL1       -0.2423
     22 C         138.9572  148.2046  156.1869 C.ar    1  UNL1        0.1008
     23 C         140.0362  141.9220  166.6441 C.3     1  UNL1        0.0437
     24 C         140.4734  140.5178  166.9395 C.3     1  UNL1        0.0768
     25 N         140.1612  139.4157  165.9712 N.3     1  UNL1       -0.2737
     26 C         141.0564  138.9295  164.8701 C.3     1  UNL1        0.0721
     27 C         140.3475  137.8195  164.1523 C.3     1  UNL1        0.0187
     28 C         139.0141  137.6197  164.8097 C.3     1  UNL1        0.0174
     29 C         138.8990  138.6062  165.9338 C.3     1  UNL1        0.0576
     30 C         137.7273  138.7566  166.8582 C.3     1  UNL1        0.0173
@<TRIPOS>BOND
     1    11    12    1
     2    12    13   ar
     3    13    14   ar
     4    14    17    1
     5    17    18   ar
     6    18    19   ar
     7    19    20   ar
     8    20    21   ar
     9    21    22   ar
    10    14    15   ar
    11    15    16   ar
    12    16     1    1
    13     1     2   ar
    14     2     3   ar
    15     3     4   ar
    16     4     5   ar
    17     5     6   ar
    18     6    23    1
    19    23    24    1
    20    24    25    1
    21    25    26    1
    22    26    27    1
    23    27    28    1
    24    28    29    1
    25    29    30    1
    26     6     7   ar
    27     7     8   ar
    28     8     9   ar
    29     9    10   ar
    30    16    12   ar
    31    10     1   ar
    32    22    17   ar
    33     9     4   ar
    34    29    25    1
@<TRIPOS>MOLECULE
*****
 30 34 0 0 0
SMALL
GASTEIGER

@<TRIPOS>ATOM
      1 C         142.7817  138.5906  158.6151 C.ar    1  UNL1        0.0884
      2 C         143.1234  139.9906  158.1991 C.ar    1  UNL1        0.0197
      3 C         143.7214  140.9431  159.1917 C.ar    1  UNL1        0.0030
      4 C         143.9777  140.4955  160.6002 C.ar    1  UNL1        0.0174
      5 C         144.5758  141.4480  161.5928 C.ar    1  UNL1       -0.0027
      6 C         144.8320  141.0004  163.0013 C.ar    1  UNL1       -0.0207
      7 C         144.4903  139.6003  163.4173 C.ar    1  UNL1       -0.0027
      8 C         143.8923  138.6478  162.4247 C.ar    1  UNL1        0.0188
      9 C         143.6360  139.0954  161.0162 C.ar    1  UNL1        0.0812
     10 N         143.0380  138.1430  160.0236 N.ar    1  UNL1       -0.2448
     11 C         139.7515  138.7265  157.4114 C.3     1  UNL1        0.0527
     12 C         140.7909  137.7005  157.0693 C.ar    1  UNL1        0.0674
     13 N         140.6199  136.5569  156.1138 N.ar    1  UNL1       -0.2425
     14 C         141.9071  135.7876  156.0765 C.ar    1  UNL1        0.1119
     15 S         142.8736  136.4558  157.0090 S.2     1  UNL1       -0.0653
     16 C         142.1837  137.6381  157.6225 C.ar    1  UNL1        0.0620
     17 C         142.1799  134.5649  155.2517 C.ar    1  UNL1        0.0430
     18 C         143.1184  133.5111  155.7603 C.ar    1  UNL1        0.0052
     19 C         143.3912  132.2883  154.9354 C.ar    1  UNL1        0.0207
     20 C         142.7255  132.1193  153.6019 C.ar    1  UNL1        0.0989
     21 N         141.7870  133.1731  153.0933 N.ar    1  UNL1       -0.2423
     22 C         141.5142  134.3959  153.9182 C.ar    1  UNL1        0.1008
     23 C         145.4300  141.9528  163.9939 C.3     1  UNL1        0.0437
     24 C         144.5448  142.6833  164.9597 C.3     1  UNL1        0.0768
     25 N         143.3928  143.4988  164.4519 N.3     1  UNL1       -0.2737
     26 C         143.4592  144.9218  163.9822 C.3     1  UNL1        0.0721
     27 C         142.0796  145.3370  163.5647 C.3     1  UNL1        0.0187
     28 C         141.1606  144.1705  163.7764 C.3     1  UNL1        0.0174
     29 C         141.9722  143.0345  164.3247 C.3     1  UNL1        0.0576
     30 C         141.4541  141.6732  164.6829 C.3     1  UNL1        0.0173
@<TRIPOS>BOND
     1    11    12    1
     2    12    13   ar
     3    13    14   ar
     4    14    17    1
     5    17    18   ar
     6    18    19   ar
     7    19    20   ar
     8    20    21   ar
     9    21    22   ar
    10    14    15   ar
    11    15    16   ar
    12    16     1    1
    13     1     2   ar
    14     2     3   ar
    15     3     4   ar
    16     4     5   ar
    17     5     6   ar
    18     6    23    1
    19    23    24    1
    20    24    25    1
    21    25    26    1
    22    26    27    1
    23    27    28    1
    24    28    29    1
    25    29    30    1
    26     6     7   ar
    27     7     8   ar
    28     8     9   ar
    29     9    10   ar
    30    16    12   ar
    31    10     1   ar
    32    22    17   ar
    33     9     4   ar
    34    29    25    1
@<TRIPOS>MOLECULE
*****
 30 34 0 0 0
SMALL
GASTEIGER

@<TRIPOS>ATOM
      1 C         140.9899  144.8044  159.6602 C.ar    1  UNL1        0.0884
      2 C         140.2041  145.4235  160.7779 C.ar    1  UNL1        0.0197
      3 C         140.6463  145.2363  162.1989 C.ar    1  UNL1        0.0030
      4 C         141.8743  144.4301  162.5023 C.ar    1  UNL1        0.0174
      5 C         142.3165  144.2430  163.9234 C.ar    1  UNL1       -0.0027
      6 C         143.5445  143.4368  164.2268 C.ar    1  UNL1       -0.0207
      7 C         144.3303  142.8177  163.1090 C.ar    1  UNL1       -0.0027
      8 C         143.8881  143.0048  161.6880 C.ar    1  UNL1        0.0188
      9 C         142.6601  143.8110  161.3846 C.ar    1  UNL1        0.0812
     10 N         142.2179  143.9982  159.9636 N.ar    1  UNL1       -0.2448
     11 C         139.0098  142.8194  157.9902 C.3     1  UNL1        0.0527
     12 C         139.6376  144.0791  157.4715 C.ar    1  UNL1        0.0674
     13 N         139.4654  144.6476  156.0941 N.ar    1  UNL1       -0.2425
     14 C         140.2692  145.9114  156.0104 C.ar    1  UNL1        0.1119
     15 S         140.9380  146.1239  157.3361 S.2     1  UNL1       -0.0653
     16 C         140.5477  144.9915  158.2391 C.ar    1  UNL1        0.0620
     17 C         140.3839  146.8056  154.8116 C.ar    1  UNL1        0.0430
     18 C         141.1661  146.3565  153.6130 C.ar    1  UNL1        0.0052
     19 C         141.2808  147.2507  152.4142 C.ar    1  UNL1        0.0207
     20 C         140.6133  148.5940  152.4139 C.ar    1  UNL1        0.0989
     21 N         139.8310  149.0430  153.6124 N.ar    1  UNL1       -0.2423
     22 C         139.7163  148.1488  154.8113 C.ar    1  UNL1        0.1008
     23 C         143.9867  143.2497  165.6478 C.3     1  UNL1        0.0437
     24 C         143.4319  142.1195  166.4633 C.3     1  UNL1        0.0768
     25 N         142.5477  142.4074  167.6404 N.3     1  UNL1       -0.2737
     26 C         142.9920  142.5296  169.0678 C.3     1  UNL1        0.0721
     27 C         141.7830  142.8214  169.9063 C.3     1  UNL1        0.0187
     28 C         140.5914  142.8795  168.9969 C.3     1  UNL1        0.0174
     29 C         141.0641  142.6237  167.5966 C.3     1  UNL1        0.0576
     30 C         140.2040  142.5900  166.3681 C.3     1  UNL1        0.0173
@<TRIPOS>BOND
     1    11    12    1
     2    12    13   ar
     3    13    14   ar
     4    14    17    1
     5    17    18   ar
     6    18    19   ar
     7    19    20   ar
     8    20    21   ar
     9    21    22   ar
    10    14    15   ar
    11    15    16   ar
    12    16     1    1
    13     1     2   ar
    14     2     3   ar
    15     3     4   ar
    16     4     5   ar
    17     5     6   ar
    18     6    23    1
    19    23    24    1
    20    24    25    1
    21    25    26    1
    22    26    27    1
    23    27    28    1
    24    28    29    1
    25    29    30    1
    26     6     7   ar
    27     7     8   ar
    28     8     9   ar
    29     9    10   ar
    30    16    12   ar
    31    10     1   ar
    32    22    17   ar
    33     9     4   ar
    34    29    25    1
@<TRIPOS>MOLECULE
*****
 30 34 0 0 0
SMALL
GASTEIGER

@<TRIPOS>ATOM
      1 C         140.2490  141.8394  161.7320 C.ar    1  UNL1        0.0884
      2 C         141.3714  142.3867  162.5631 C.ar    1  UNL1        0.0197
      3 C         141.4317  142.0881  164.0318 C.ar    1  UNL1        0.0030
      4 C         140.3696  141.2422  164.6694 C.ar    1  UNL1        0.0174
      5 C         140.4299  140.9436  166.1382 C.ar    1  UNL1       -0.0027
      6 C         139.3679  140.0978  166.7758 C.ar    1  UNL1       -0.0207
      7 C         138.2455  139.5505  165.9446 C.ar    1  UNL1       -0.0027
      8 C         138.1852  139.8491  164.4759 C.ar    1  UNL1        0.0188
      9 C         139.2472  140.6950  163.8383 C.ar    1  UNL1        0.0812
     10 N         139.1869  140.9936  162.3696 N.ar    1  UNL1       -0.2448
     11 C         141.0577  139.7915  159.3233 C.3     1  UNL1        0.0527
     12 C         140.5604  141.1967  159.1561 C.ar    1  UNL1        0.0674
     13 N         140.3474  141.9073  157.8524 N.ar    1  UNL1       -0.2425
     14 C         139.8441  143.2879  158.1537 C.ar    1  UNL1        0.1119
     15 S         139.7459  143.4304  159.6437 S.2     1  UNL1       -0.0653
     16 C         140.1886  142.1380  160.2632 C.ar    1  UNL1        0.0620
     17 C         139.4994  144.3409  157.1426 C.ar    1  UNL1        0.0430
     18 C         140.1506  145.6903  157.2134 C.ar    1  UNL1        0.0052
     19 C         139.8059  146.7433  156.2023 C.ar    1  UNL1        0.0207
     20 C         138.8100  146.4469  155.1205 C.ar    1  UNL1        0.0989
     21 N         138.1589  145.0974  155.0497 N.ar    1  UNL1       -0.2423
     22 C         138.5035  144.0444  156.0608 C.ar    1  UNL1        0.1008
     23 C         139.4282  139.7992  168.2445 C.3     1  UNL1        0.0437
     24 C         139.6306  140.9130  169.2287 C.3     1  UNL1        0.0768
     25 N         141.0144  141.4111  169.5235 N.3     1  UNL1       -0.2737
     26 C         142.2613  140.5783  169.5639 C.3     1  UNL1        0.0721
     27 C         143.4118  141.4820  169.8950 C.3     1  UNL1        0.0187
     28 C         142.8759  142.8734  170.0592 C.3     1  UNL1        0.0174
     29 C         141.3943  142.8296  169.8295 C.3     1  UNL1        0.0576
     30 C         140.4571  143.9989  169.8946 C.3     1  UNL1        0.0173
@<TRIPOS>BOND
     1    11    12    1
     2    12    13   ar
     3    13    14   ar
     4    14    17    1
     5    17    18   ar
     6    18    19   ar
     7    19    20   ar
     8    20    21   ar
     9    21    22   ar
    10    14    15   ar
    11    15    16   ar
    12    16     1    1
    13     1     2   ar
    14     2     3   ar
    15     3     4   ar
    16     4     5   ar
    17     5     6   ar
    18     6    23    1
    19    23    24    1
    20    24    25    1
    21    25    26    1
    22    26    27    1
    23    27    28    1
    24    28    29    1
    25    29    30    1
    26     6     7   ar
    27     7     8   ar
    28     8     9   ar
    29     9    10   ar
    30    16    12   ar
    31    10     1   ar
    32    22    17   ar
    33     9     4   ar
    34    29    25    1
