@<TRIPOS>MOLECULE
*****
 33 35 0 0 0
SMALL
GASTEIGER

@<TRIPOS>ATOM
      1 S         140.1731  138.3993  162.2971 S.O2    1  UNL1        0.0768
      2 O         139.4544  139.6715  161.9585 O.2     1  UNL1       -0.1498
      3 O         140.8918  137.1270  162.6357 O.2     1  UNL1       -0.1498
      4 O         141.6543  140.1116  164.2654 O.2     1  UNL1       -0.2509
      5 C         140.4305  139.3594  164.6975 C.2     1  UNL1        0.3231
      6 N         139.9474  139.4634  166.1137 N.am    1  UNL1       -0.2671
      7 N         139.6900  138.5033  163.7133 N.am    1  UNL1       -0.1690
      8 H         139.1442  138.9698  166.3973 H       1  UNL1        0.1565
      9 H         138.8868  138.0096  163.9969 H       1  UNL1        0.1781
     10 C         140.6880  140.3196  167.0979 C.ar    1  UNL1        0.0516
     11 C         141.8733  139.7654  167.8312 C.ar    1  UNL1        0.0147
     12 C         142.6138  140.6216  168.8154 C.ar    1  UNL1        0.0051
     13 C         142.1690  142.0320  169.0661 C.ar    1  UNL1        0.0715
     14 C         140.9837  142.5862  168.3328 C.ar    1  UNL1        0.0051
     15 C         140.2432  141.7301  167.3487 C.ar    1  UNL1        0.0147
     16 C         142.9096  142.8882  170.0503 C.3     1  UNL1        0.4186
     17 F         143.6502  143.7443  171.0345 F       1  UNL1       -0.1659
     18 F         141.7346  143.8174  170.1262 F       1  UNL1       -0.1659
     19 F         144.0846  141.9589  169.9745 F       1  UNL1       -0.1659
     20 C         140.6563  138.2953  160.8809 C.ar    1  UNL1        0.1255
     21 C         139.6981  138.4977  159.7447 C.ar    1  UNL1        0.0233
     22 C         140.1813  138.3937  158.3285 C.ar    1  UNL1        0.0383
     23 C         141.6227  138.0872  158.0484 C.ar    1  UNL1        0.1387
     24 C         142.5809  137.8848  159.1846 C.ar    1  UNL1        0.0383
     25 C         142.0977  137.9888  160.6008 C.ar    1  UNL1        0.0233
     26 O         142.1059  137.9832  156.6322 O.3     1  UNL1       -0.4740
     27 C         142.9795  136.8357  156.2202 C.3     1  UNL1        0.2226
     28 C         142.4111  135.4496  156.1450 C.3     1  UNL1        0.1200
     29 N         143.2709  134.2671  156.4804 N.3     1  UNL1       -0.2696
     30 C         143.6924  133.1856  155.5304 C.3     1  UNL1        0.0722
     31 C         144.5422  132.2086  156.2876 C.3     1  UNL1        0.0188
     32 C         144.6460  132.6864  157.7057 C.3     1  UNL1        0.0188
     33 C         143.8603  133.9586  157.8248 C.3     1  UNL1        0.0722
@<TRIPOS>BOND
     1     4     5    2
     2     5     6   am
     3     6    10    1
     4    10    11   ar
     5    11    12   ar
     6    12    13   ar
     7    13    16    1
     8    16    17    1
     9    16    18    1
    10    16    19    1
    11    13    14   ar
    12    14    15   ar
    13     5     7   am
    14     7     1    1
    15     1     2    2
    16     1     3    2
    17     1    20    1
    18    20    21   ar
    19    21    22   ar
    20    22    23   ar
    21    23    26    1
    22    26    27    1
    23    27    28    1
    24    28    29    1
    25    29    30    1
    26    30    31    1
    27    31    32    1
    28    32    33    1
    29    23    24   ar
    30    24    25   ar
    31    15    10   ar
    32    25    20   ar
    33    33    29    1
    34     6     8    1
    35     7     9    1
@<TRIPOS>MOLECULE
*****
 33 35 0 0 0
SMALL
GASTEIGER

@<TRIPOS>ATOM
      1 S         140.2379  138.3541  162.3116 S.O2    1  UNL1        0.0768
      2 O         141.1311  137.1890  162.6192 O.2     1  UNL1       -0.1498
      3 O         139.3448  139.5193  162.0039 O.2     1  UNL1       -0.1498
      4 O         141.6742  140.1282  164.2584 O.2     1  UNL1       -0.2509
      5 C         140.5213  139.2868  164.7199 C.2     1  UNL1        0.3231
      6 N         140.0866  139.3324  166.1547 N.am    1  UNL1       -0.2671
      7 N         139.8032  138.3997  163.7464 N.am    1  UNL1       -0.1690
      8 H         139.3299  138.7802  166.4576 H       1  UNL1        0.1565
      9 H         139.0465  137.8475  164.0493 H       1  UNL1        0.1781
     10 C         140.8047  140.2195  167.1282 C.ar    1  UNL1        0.0516
     11 C         141.9966  139.7012  167.8769 C.ar    1  UNL1        0.0147
     12 C         142.7147  140.5883  168.8502 C.ar    1  UNL1        0.0051
     13 C         142.2407  141.9936  169.0750 C.ar    1  UNL1        0.0715
     14 C         141.0487  142.5118  168.3263 C.ar    1  UNL1        0.0051
     15 C         140.3307  141.6248  167.3529 C.ar    1  UNL1        0.0147
     16 C         142.9588  142.8807  170.0484 C.3     1  UNL1        0.4186
     17 F         143.6769  143.7677  171.0218 F       1  UNL1       -0.1659
     18 F         144.1841  142.0243  169.9250 F       1  UNL1       -0.1659
     19 F         141.7336  143.7370  170.1718 F       1  UNL1       -0.1659
     20 C         140.6727  138.3085  160.8767 C.ar    1  UNL1        0.1255
     21 C         142.1114  138.0545  160.5367 C.ar    1  UNL1        0.0233
     22 C         142.5461  138.0089  159.1017 C.ar    1  UNL1        0.0383
     23 C         141.5422  138.2173  158.0069 C.ar    1  UNL1        0.1387
     24 C         140.1035  138.4712  158.3470 C.ar    1  UNL1        0.0383
     25 C         139.6687  138.5169  159.7818 C.ar    1  UNL1        0.0233
     26 O         141.9769  138.1716  156.5721 O.3     1  UNL1       -0.4740
     27 C         143.4375  138.1498  156.2313 C.3     1  UNL1        0.2226
     28 C         144.0045  137.0134  155.4328 C.3     1  UNL1        0.1200
     29 N         143.4532  135.6288  155.6030 N.3     1  UNL1       -0.2696
     30 C         143.4004  134.8522  156.8852 C.3     1  UNL1        0.0722
     31 C         142.7725  133.5211  156.5954 C.3     1  UNL1        0.0188
     32 C         142.4371  133.4751  155.1341 C.3     1  UNL1        0.0188
     33 C         142.8578  134.7778  154.5208 C.3     1  UNL1        0.0722
@<TRIPOS>BOND
     1     4     5    2
     2     5     6   am
     3     6    10    1
     4    10    11   ar
     5    11    12   ar
     6    12    13   ar
     7    13    16    1
     8    16    17    1
     9    16    18    1
    10    16    19    1
    11    13    14   ar
    12    14    15   ar
    13     5     7   am
    14     7     1    1
    15     1     2    2
    16     1     3    2
    17     1    20    1
    18    20    21   ar
    19    21    22   ar
    20    22    23   ar
    21    23    26    1
    22    26    27    1
    23    27    28    1
    24    28    29    1
    25    29    30    1
    26    30    31    1
    27    31    32    1
    28    32    33    1
    29    23    24   ar
    30    24    25   ar
    31    15    10   ar
    32    25    20   ar
    33    33    29    1
    34     6     8    1
    35     7     9    1
@<TRIPOS>MOLECULE
*****
 33 35 0 0 0
SMALL
GASTEIGER

@<TRIPOS>ATOM
      1 S         142.2010  138.1625  162.2677 S.O2    1  UNL1        0.0768
      2 O         141.0650  137.2374  162.5894 O.2     1  UNL1       -0.1498
      3 O         143.3371  139.0875  161.9460 O.2     1  UNL1       -0.1498
      4 O         140.9713  140.0688  164.2308 O.2     1  UNL1       -0.2509
      5 C         142.0133  139.0910  164.6870 C.2     1  UNL1        0.3231
      6 N         142.4405  139.0664  166.1246 N.am    1  UNL1       -0.2671
      7 N         142.6282  138.1378  163.7054 N.am    1  UNL1       -0.1690
      8 H         143.1244  138.4246  166.4240 H       1  UNL1        0.1565
      9 H         143.3121  137.4960  164.0048 H       1  UNL1        0.1781
     10 C         141.8256  140.0196  167.1062 C.ar    1  UNL1        0.0516
     11 C         140.4589  139.7470  167.6609 C.ar    1  UNL1        0.0147
     12 C         139.8441  140.7002  168.6424 C.ar    1  UNL1        0.0051
     13 C         140.5960  141.9260  169.0692 C.ar    1  UNL1        0.0715
     14 C         141.9627  142.1986  168.5145 C.ar    1  UNL1        0.0051
     15 C         142.5775  141.2454  167.5330 C.ar    1  UNL1        0.0147
     16 C         139.9811  142.8792  170.0508 C.3     1  UNL1        0.4186
     17 F         139.3663  143.8324  171.0323 F       1  UNL1       -0.1659
     18 F         138.9510  141.8485  170.4065 F       1  UNL1       -0.1659
     19 F         141.0112  143.9099  169.6951 F       1  UNL1       -0.1659
     20 C         141.7739  138.1871  160.8301 C.ar    1  UNL1        0.1255
     21 C         140.3410  138.4570  160.4779 C.ar    1  UNL1        0.0233
     22 C         139.9139  138.4816  159.0402 C.ar    1  UNL1        0.0383
     23 C         140.9196  138.2364  157.9547 C.ar    1  UNL1        0.1387
     24 C         142.3525  137.9665  158.3069 C.ar    1  UNL1        0.0383
     25 C         142.7796  137.9418  159.7445 C.ar    1  UNL1        0.0233
     26 O         140.4925  138.2610  156.5170 O.3     1  UNL1       -0.4740
     27 C         140.2541  136.9746  155.7833 C.3     1  UNL1        0.2226
     28 C         141.3972  136.2692  155.1154 C.3     1  UNL1        0.1200
     29 N         141.8632  134.9404  155.6321 N.3     1  UNL1       -0.2696
     30 C         142.8953  134.7217  156.6984 C.3     1  UNL1        0.0722
     31 C         143.0490  133.2431  156.8986 C.3     1  UNL1        0.0188
     32 C         142.1118  132.5479  155.9560 C.3     1  UNL1        0.0188
     33 C         141.3790  133.5969  155.1733 C.3     1  UNL1        0.0722
@<TRIPOS>BOND
     1     4     5    2
     2     5     6   am
     3     6    10    1
     4    10    11   ar
     5    11    12   ar
     6    12    13   ar
     7    13    16    1
     8    16    17    1
     9    16    18    1
    10    16    19    1
    11    13    14   ar
    12    14    15   ar
    13     5     7   am
    14     7     1    1
    15     1     2    2
    16     1     3    2
    17     1    20    1
    18    20    21   ar
    19    21    22   ar
    20    22    23   ar
    21    23    26    1
    22    26    27    1
    23    27    28    1
    24    28    29    1
    25    29    30    1
    26    30    31    1
    27    31    32    1
    28    32    33    1
    29    23    24   ar
    30    24    25   ar
    31    15    10   ar
    32    25    20   ar
    33    33    29    1
    34     6     8    1
    35     7     9    1
@<TRIPOS>MOLECULE
*****
 33 35 0 0 0
SMALL
GASTEIGER

@<TRIPOS>ATOM
      1 S         139.6098  139.2833  160.3028 S.O2    1  UNL1        0.0768
      2 O         139.0832  137.9135  160.6131 O.2     1  UNL1       -0.1498
      3 O         140.1363  140.6531  159.9925 O.2     1  UNL1       -0.1498
      4 O         140.4115  139.1568  163.1909 O.2     1  UNL1       -0.2509
      5 C         139.1154  139.8027  162.8000 C.2     1  UNL1        0.3231
      6 N         138.2201  140.3854  163.8530 N.am    1  UNL1       -0.2671
      7 N         138.7145  139.8659  161.3559 N.am    1  UNL1       -0.1690
      8 H         137.3694  140.8093  163.5964 H       1  UNL1        0.1565
      9 H         137.8638  140.2899  161.0992 H       1  UNL1        0.1781
     10 C         138.6210  140.3221  165.2972 C.ar    1  UNL1        0.0516
     11 C         138.0268  139.2781  166.1954 C.ar    1  UNL1        0.0147
     12 C         138.4277  139.2149  167.6394 C.ar    1  UNL1        0.0051
     13 C         139.4227  140.1958  168.1852 C.ar    1  UNL1        0.0715
     14 C         140.0168  141.2398  167.2870 C.ar    1  UNL1        0.0051
     15 C         139.6159  141.3030  165.8429 C.ar    1  UNL1        0.0147
     16 C         139.8235  140.1325  169.6293 C.3     1  UNL1        0.4186
     17 F         140.2244  140.0693  171.0734 F       1  UNL1       -0.1659
     18 F         138.4971  140.7118  170.0229 F       1  UNL1       -0.1659
     19 F         141.1500  139.5533  169.2357 F       1  UNL1       -0.1659
     20 C         140.5050  138.7006  159.2497 C.ar    1  UNL1        0.1255
     21 C         139.9972  138.5194  157.8500 C.ar    1  UNL1        0.0233
     22 C         140.8926  137.9367  156.7969 C.ar    1  UNL1        0.0383
     23 C         142.2956  137.5352  157.1436 C.ar    1  UNL1        0.1387
     24 C         142.8034  137.7165  158.5434 C.ar    1  UNL1        0.0383
     25 C         141.9082  138.2991  159.5964 C.ar    1  UNL1        0.0233
     26 O         143.1909  136.9526  156.0906 O.3     1  UNL1       -0.4740
     27 C         142.8700  135.6166  155.4887 C.3     1  UNL1        0.2226
     28 C         142.2419  134.5460  156.3309 C.3     1  UNL1        0.1200
     29 N         143.0586  133.3721  156.7836 N.3     1  UNL1       -0.2696
     30 C         144.3234  133.4355  157.5875 C.3     1  UNL1        0.0722
     31 C         144.8005  132.0313  157.8127 C.3     1  UNL1        0.0188
     32 C         143.8306  131.1001  157.1478 C.3     1  UNL1        0.0188
     33 C         142.7541  131.9287  156.5118 C.3     1  UNL1        0.0722
@<TRIPOS>BOND
     1     4     5    2
     2     5     6   am
     3     6    10    1
     4    10    11   ar
     5    11    12   ar
     6    12    13   ar
     7    13    16    1
     8    16    17    1
     9    16    18    1
    10    16    19    1
    11    13    14   ar
    12    14    15   ar
    13     5     7   am
    14     7     1    1
    15     1     2    2
    16     1     3    2
    17     1    20    1
    18    20    21   ar
    19    21    22   ar
    20    22    23   ar
    21    23    26    1
    22    26    27    1
    23    27    28    1
    24    28    29    1
    25    29    30    1
    26    30    31    1
    27    31    32    1
    28    32    33    1
    29    23    24   ar
    30    24    25   ar
    31    15    10   ar
    32    25    20   ar
    33    33    29    1
    34     6     8    1
    35     7     9    1
@<TRIPOS>MOLECULE
*****
 33 35 0 0 0
SMALL
GASTEIGER

@<TRIPOS>ATOM
      1 S         140.3009  138.3885  162.2235 S.O2    1  UNL1        0.0768
      2 O         139.4798  139.5888  161.8560 O.2     1  UNL1       -0.1498
      3 O         141.1220  137.1883  162.5910 O.2     1  UNL1       -0.1498
      4 O         141.7254  140.1134  164.2225 O.2     1  UNL1       -0.2509
      5 C         140.5089  139.3377  164.6330 C.2     1  UNL1        0.3231
      6 N         140.0046  139.4245  166.0430 N.am    1  UNL1       -0.2671
      7 N         139.7966  138.4753  163.6335 N.am    1  UNL1       -0.1690
      8 H         139.2062  138.9154  166.3124 H       1  UNL1        0.1565
      9 H         138.9982  137.9662  163.9029 H       1  UNL1        0.1781
     10 C         140.7168  140.2869  167.0426 C.ar    1  UNL1        0.0516
     11 C         141.8629  139.7288  167.8330 C.ar    1  UNL1        0.0147
     12 C         142.5751  140.5912  168.8325 C.ar    1  UNL1        0.0051
     13 C         142.1411  142.0117  169.0416 C.ar    1  UNL1        0.0715
     14 C         140.9950  142.5699  168.2511 C.ar    1  UNL1        0.0051
     15 C         140.2829  141.7075  167.2516 C.ar    1  UNL1        0.0147
     16 C         142.8534  142.8741  170.0411 C.3     1  UNL1        0.4186
     17 F         143.5656  143.7365  171.0406 F       1  UNL1       -0.1659
     18 F         141.6551  143.7730  170.1195 F       1  UNL1       -0.1659
     19 F         144.0516  141.9753  169.9628 F       1  UNL1       -0.1659
     20 C         140.8052  138.3018  160.8135 C.ar    1  UNL1        0.1255
     21 C         142.2373  137.9420  160.5499 C.ar    1  UNL1        0.0233
     22 C         142.7416  137.8552  159.1399 C.ar    1  UNL1        0.0383
     23 C         141.8137  138.1283  157.9934 C.ar    1  UNL1        0.1387
     24 C         140.3815  138.4881  158.2569 C.ar    1  UNL1        0.0383
     25 C         139.8773  138.5748  159.6669 C.ar    1  UNL1        0.0233
     26 O         142.3180  138.0415  156.5834 O.3     1  UNL1       -0.4740
     27 C         143.5598  138.7821  156.1841 C.3     1  UNL1        0.2226
     28 C         143.5821  140.2816  156.2175 C.3     1  UNL1        0.1200
     29 N         144.8917  141.0111  156.2729 N.3     1  UNL1       -0.2696
     30 C         145.3046  142.0034  157.3193 C.3     1  UNL1        0.0722
     31 C         146.6863  142.4819  156.9848 C.3     1  UNL1        0.0188
     32 C         147.1273  141.7854  155.7317 C.3     1  UNL1        0.0188
     33 C         146.0182  140.8764  155.2918 C.3     1  UNL1        0.0722
@<TRIPOS>BOND
     1     4     5    2
     2     5     6   am
     3     6    10    1
     4    10    11   ar
     5    11    12   ar
     6    12    13   ar
     7    13    16    1
     8    16    17    1
     9    16    18    1
    10    16    19    1
    11    13    14   ar
    12    14    15   ar
    13     5     7   am
    14     7     1    1
    15     1     2    2
    16     1     3    2
    17     1    20    1
    18    20    21   ar
    19    21    22   ar
    20    22    23   ar
    21    23    26    1
    22    26    27    1
    23    27    28    1
    24    28    29    1
    25    29    30    1
    26    30    31    1
    27    31    32    1
    28    32    33    1
    29    23    24   ar
    30    24    25   ar
    31    15    10   ar
    32    25    20   ar
    33    33    29    1
    34     6     8    1
    35     7     9    1
@<TRIPOS>MOLECULE
*****
 33 35 0 0 0
SMALL
GASTEIGER

@<TRIPOS>ATOM
      1 S         144.0370  140.1837  162.1568 S.O2    1  UNL1        0.0768
      2 O         142.8546  139.3246  161.8196 O.2     1  UNL1       -0.1498
      3 O         145.2195  141.0428  162.4941 O.2     1  UNL1       -0.1498
      4 O         142.4429  141.6702  164.2182 O.2     1  UNL1       -0.2509
      5 C         143.1963  140.4314  164.6026 C.2     1  UNL1        0.3231
      6 N         143.1527  139.9359  166.0177 N.am    1  UNL1       -0.2671
      7 N         143.9934  139.6882  163.5719 N.am    1  UNL1       -0.1690
      8 H         143.6472  139.1229  166.2700 H       1  UNL1        0.1565
      9 H         144.4879  138.8752  163.8242 H       1  UNL1        0.1781
     10 C         142.3556  140.6792  167.0484 C.ar    1  UNL1        0.0516
     11 C         142.9877  141.7982  167.8218 C.ar    1  UNL1        0.0147
     12 C         142.1906  142.5414  168.8525 C.ar    1  UNL1        0.0051
     13 C         140.7615  142.1655  169.1097 C.ar    1  UNL1        0.0715
     14 C         140.1294  141.0465  168.3363 C.ar    1  UNL1        0.0051
     15 C         140.9264  140.3033  167.3057 C.ar    1  UNL1        0.0147
     16 C         139.9644  142.9088  170.1404 C.3     1  UNL1        0.4186
     17 F         139.1673  143.6520  171.1711 F       1  UNL1       -0.1659
     18 F         139.0780  141.7118  170.3182 F       1  UNL1       -0.1659
     19 F         140.8507  144.1057  169.9627 F       1  UNL1       -0.1659
     20 C         144.0806  140.6792  160.7417 C.ar    1  UNL1        0.1255
     21 C         143.7480  139.7509  159.6114 C.ar    1  UNL1        0.0233
     22 C         143.7916  140.2465  158.1963 C.ar    1  UNL1        0.0383
     23 C         144.1679  141.6703  157.9115 C.ar    1  UNL1        0.1387
     24 C         144.5005  142.5986  159.0418 C.ar    1  UNL1        0.0383
     25 C         144.4569  142.1031  160.4569 C.ar    1  UNL1        0.0233
     26 O         144.2115  142.1658  156.4964 O.3     1  UNL1       -0.4740
     27 C         145.1538  141.5400  155.5113 C.3     1  UNL1        0.2226
     28 C         146.6356  141.6479  155.7182 C.3     1  UNL1        0.1200
     29 N         147.4722  142.4347  154.7533 N.3     1  UNL1       -0.2696
     30 C         147.1013  143.7491  154.1328 C.3     1  UNL1        0.0722
     31 C         148.2265  144.1721  153.2356 C.3     1  UNL1        0.0188
     32 C         149.2928  143.1192  153.3015 C.3     1  UNL1        0.0188
     33 C         148.8266  142.0455  154.2395 C.3     1  UNL1        0.0722
@<TRIPOS>BOND
     1     4     5    2
     2     5     6   am
     3     6    10    1
     4    10    11   ar
     5    11    12   ar
     6    12    13   ar
     7    13    16    1
     8    16    17    1
     9    16    18    1
    10    16    19    1
    11    13    14   ar
    12    14    15   ar
    13     5     7   am
    14     7     1    1
    15     1     2    2
    16     1     3    2
    17     1    20    1
    18    20    21   ar
    19    21    22   ar
    20    22    23   ar
    21    23    26    1
    22    26    27    1
    23    27    28    1
    24    28    29    1
    25    29    30    1
    26    30    31    1
    27    31    32    1
    28    32    33    1
    29    23    24   ar
    30    24    25   ar
    31    15    10   ar
    32    25    20   ar
    33    33    29    1
    34     6     8    1
    35     7     9    1
@<TRIPOS>MOLECULE
*****
 33 35 0 0 0
SMALL
GASTEIGER

@<TRIPOS>ATOM
      1 S         144.0078  139.2910  161.1696 S.O2    1  UNL1        0.0768
      2 O         144.1648  140.7631  160.9281 O.2     1  UNL1       -0.1498
      3 O         143.8508  137.8190  161.4110 O.2     1  UNL1       -0.1498
      4 O         142.0544  140.1172  163.2914 O.2     1  UNL1       -0.2509
      5 C         143.4937  139.8869  163.6456 C.2     1  UNL1        0.3231
      6 N         143.9563  140.0697  165.0607 N.am    1  UNL1       -0.2671
      7 N         144.4704  139.4738  162.5847 N.am    1  UNL1       -0.1690
      8 H         144.9009  139.9185  165.2932 H       1  UNL1        0.1565
      9 H         145.4150  139.3227  162.8172 H       1  UNL1        0.1781
     10 C         142.9796  140.4828  166.1217 C.ar    1  UNL1        0.0516
     11 C         142.2455  139.4405  166.9121 C.ar    1  UNL1        0.0147
     12 C         141.2689  139.8536  167.9730 C.ar    1  UNL1        0.0051
     13 C         141.0263  141.3090  168.2434 C.ar    1  UNL1        0.0715
     14 C         141.7604  142.3512  167.4530 C.ar    1  UNL1        0.0051
     15 C         142.7371  141.9381  166.3921 C.ar    1  UNL1        0.0147
     16 C         140.0496  141.7221  169.3043 C.3     1  UNL1        0.4186
     17 F         139.0730  142.1352  170.3652 F       1  UNL1       -0.1659
     18 F         139.8475  140.2836  169.6784 F       1  UNL1       -0.1659
     19 F         140.2518  143.1605  168.9303 F       1  UNL1       -0.1659
     20 C         143.5452  139.1083  159.7545 C.ar    1  UNL1        0.1255
     21 C         142.8704  137.8328  159.3448 C.ar    1  UNL1        0.0233
     22 C         142.4078  137.6500  157.9296 C.ar    1  UNL1        0.0383
     23 C         142.6200  138.7427  156.9242 C.ar    1  UNL1        0.1387
     24 C         143.2947  140.0182  157.3339 C.ar    1  UNL1        0.0383
     25 C         143.7573  140.2010  158.7490 C.ar    1  UNL1        0.0233
     26 O         142.1574  138.5599  155.5091 O.3     1  UNL1       -0.4740
     27 C         141.7036  137.2105  155.0368 C.3     1  UNL1        0.2226
     28 C         142.7127  136.1909  154.5984 C.3     1  UNL1        0.1200
     29 N         142.6350  134.7866  155.1198 N.3     1  UNL1       -0.2696
     30 C         141.4566  133.8661  155.0016 C.3     1  UNL1        0.0722
     31 C         141.8154  132.5668  155.6597 C.3     1  UNL1        0.0188
     32 C         143.2157  132.6842  156.1846 C.3     1  UNL1        0.0188
     33 C         143.7222  134.0561  155.8509 C.3     1  UNL1        0.0722
@<TRIPOS>BOND
     1     4     5    2
     2     5     6   am
     3     6    10    1
     4    10    11   ar
     5    11    12   ar
     6    12    13   ar
     7    13    16    1
     8    16    17    1
     9    16    18    1
    10    16    19    1
    11    13    14   ar
    12    14    15   ar
    13     5     7   am
    14     7     1    1
    15     1     2    2
    16     1     3    2
    17     1    20    1
    18    20    21   ar
    19    21    22   ar
    20    22    23   ar
    21    23    26    1
    22    26    27    1
    23    27    28    1
    24    28    29    1
    25    29    30    1
    26    30    31    1
    27    31    32    1
    28    32    33    1
    29    23    24   ar
    30    24    25   ar
    31    15    10   ar
    32    25    20   ar
    33    33    29    1
    34     6     8    1
    35     7     9    1
@<TRIPOS>MOLECULE
*****
 33 35 0 0 0
SMALL
GASTEIGER

@<TRIPOS>ATOM
      1 S         142.8820  139.9928  157.5058 S.O2    1  UNL1        0.0768
      2 O         143.4067  139.5906  158.8522 O.2     1  UNL1       -0.1498
      3 O         142.3574  140.3950  156.1594 O.2     1  UNL1       -0.1498
      4 O         141.7571  137.2323  157.1678 O.2     1  UNL1       -0.2509
      5 C         143.1468  137.5391  156.6937 C.2     1  UNL1        0.3231
      6 N         143.9740  136.4657  156.0507 N.am    1  UNL1       -0.2671
      7 N         143.7092  138.9194  156.8628 N.am    1  UNL1       -0.1690
      8 H         144.8860  136.6671  155.7396 H       1  UNL1        0.1565
      9 H         144.6213  139.1208  156.5517 H       1  UNL1        0.1781
     10 C         143.4115  135.0854  155.8817 C.ar    1  UNL1        0.0516
     11 C         143.4651  134.1092  157.0193 C.ar    1  UNL1        0.0147
     12 C         142.9026  132.7290  156.8502 C.ar    1  UNL1        0.0051
     13 C         142.2866  132.3250  155.5436 C.ar    1  UNL1        0.0715
     14 C         142.2330  133.3012  154.4060 C.ar    1  UNL1        0.0051
     15 C         142.7955  134.6814  154.5751 C.ar    1  UNL1        0.0147
     16 C         141.7241  130.9447  155.3745 C.3     1  UNL1        0.4186
     17 F         141.1617  129.5645  155.2055 F       1  UNL1       -0.1659
     18 F         143.0523  130.3574  155.7501 F       1  UNL1       -0.1659
     19 F         140.3960  131.5320  154.9989 F       1  UNL1       -0.1659
     20 C         142.0548  141.0662  158.1488 C.ar    1  UNL1        0.1255
     21 C         141.9995  141.1761  159.6438 C.ar    1  UNL1        0.0233
     22 C         141.1723  142.2496  160.2868 C.ar    1  UNL1        0.0383
     23 C         140.4004  143.2131  159.4348 C.ar    1  UNL1        0.1387
     24 C         140.4557  143.1031  157.9399 C.ar    1  UNL1        0.0383
     25 C         141.2829  142.0298  157.2969 C.ar    1  UNL1        0.0233
     26 O         139.5732  144.2865  160.0779 O.3     1  UNL1       -0.4740
     27 C         140.2381  145.4995  160.6578 C.3     1  UNL1        0.2226
     28 C         139.7952  146.0339  161.9876 C.3     1  UNL1        0.1200
     29 N         139.2778  145.0964  163.0380 N.3     1  UNL1       -0.2696
     30 C         137.9555  144.3886  163.0140 C.3     1  UNL1        0.0722
     31 C         137.8522  143.5568  164.2580 C.3     1  UNL1        0.0188
     32 C         139.1107  143.7505  165.0508 C.3     1  UNL1        0.0188
     33 C         139.9917  144.7020  164.2968 C.3     1  UNL1        0.0722
@<TRIPOS>BOND
     1     4     5    2
     2     5     6   am
     3     6    10    1
     4    10    11   ar
     5    11    12   ar
     6    12    13   ar
     7    13    16    1
     8    16    17    1
     9    16    18    1
    10    16    19    1
    11    13    14   ar
    12    14    15   ar
    13     5     7   am
    14     7     1    1
    15     1     2    2
    16     1     3    2
    17     1    20    1
    18    20    21   ar
    19    21    22   ar
    20    22    23   ar
    21    23    26    1
    22    26    27    1
    23    27    28    1
    24    28    29    1
    25    29    30    1
    26    30    31    1
    27    31    32    1
    28    32    33    1
    29    23    24   ar
    30    24    25   ar
    31    15    10   ar
    32    25    20   ar
    33    33    29    1
    34     6     8    1
    35     7     9    1
@<TRIPOS>MOLECULE
*****
 33 35 0 0 0
SMALL
GASTEIGER

@<TRIPOS>ATOM
      1 S         140.9402  145.1885  159.9059 S.O2    1  UNL1        0.0768
      2 O         139.6684  145.8161  160.3944 O.2     1  UNL1       -0.1498
      3 O         142.2119  144.5609  159.4174 O.2     1  UNL1       -0.1498
      4 O         140.5782  143.1490  162.0760 O.2     1  UNL1       -0.2509
      5 C         141.3840  144.3870  162.3371 C.2     1  UNL1        0.3231
      6 N         142.0087  144.6053  163.6832 N.am    1  UNL1       -0.2671
      7 N         141.5649  145.4068  161.2520 N.am    1  UNL1       -0.1690
      8 H         142.5376  145.4178  163.8545 H       1  UNL1        0.1565
      9 H         142.0938  146.2193  161.4233 H       1  UNL1        0.1781
     10 C         141.8278  143.5855  164.7683 C.ar    1  UNL1        0.0516
     11 C         142.9757  142.7088  165.1726 C.ar    1  UNL1        0.0147
     12 C         142.7947  141.6892  166.2577 C.ar    1  UNL1        0.0051
     13 C         141.4658  141.5462  166.9384 C.ar    1  UNL1        0.0715
     14 C         140.3178  142.4229  166.5341 C.ar    1  UNL1        0.0051
     15 C         140.4988  143.4426  165.4490 C.ar    1  UNL1        0.0147
     16 C         141.2848  140.5264  168.0236 C.3     1  UNL1        0.4186
     17 F         141.1039  139.5067  169.1086 F       1  UNL1       -0.1659
     18 F         139.7992  140.7245  167.9620 F       1  UNL1       -0.1659
     19 F         142.7704  140.3284  168.0851 F       1  UNL1       -0.1659
     20 C         140.3154  144.9703  158.5598 C.ar    1  UNL1        0.1255
     21 C         140.3612  146.0567  157.5266 C.ar    1  UNL1        0.0233
     22 C         139.7364  145.8384  156.1805 C.ar    1  UNL1        0.0383
     23 C         139.0658  144.5337  155.8676 C.ar    1  UNL1        0.1387
     24 C         139.0200  143.4472  156.9008 C.ar    1  UNL1        0.0383
     25 C         139.6448  143.6655  158.2469 C.ar    1  UNL1        0.0233
     26 O         138.4411  144.3154  154.5215 O.3     1  UNL1       -0.4740
     27 C         136.9560  144.1400  154.4034 C.3     1  UNL1        0.2226
     28 C         136.3926  143.1604  153.4169 C.3     1  UNL1        0.1200
     29 N         135.9603  141.7991  153.8751 N.3     1  UNL1       -0.2696
     30 C         134.8306  141.5032  154.8164 C.3     1  UNL1        0.0722
     31 C         134.7539  140.0159  154.9956 C.3     1  UNL1        0.0188
     32 C         135.8364  139.3926  154.1650 C.3     1  UNL1        0.0188
     33 C         136.5819  140.4947  153.4725 C.3     1  UNL1        0.0722
@<TRIPOS>BOND
     1     4     5    2
     2     5     6   am
     3     6    10    1
     4    10    11   ar
     5    11    12   ar
     6    12    13   ar
     7    13    16    1
     8    16    17    1
     9    16    18    1
    10    16    19    1
    11    13    14   ar
    12    14    15   ar
    13     5     7   am
    14     7     1    1
    15     1     2    2
    16     1     3    2
    17     1    20    1
    18    20    21   ar
    19    21    22   ar
    20    22    23   ar
    21    23    26    1
    22    26    27    1
    23    27    28    1
    24    28    29    1
    25    29    30    1
    26    30    31    1
    27    31    32    1
    28    32    33    1
    29    23    24   ar
    30    24    25   ar
    31    15    10   ar
    32    25    20   ar
    33    33    29    1
    34     6     8    1
    35     7     9    1
