@<TRIPOS>MOLECULE
*****
 41 47 0 0 0
SMALL
GASTEIGER

@<TRIPOS>ATOM
      1 C         142.3371  142.7164  160.2570 C.3     1  UNL1        0.1707
      2 N         141.8363  143.3275  158.9820 N.3     1  UNL1       -0.2797
      3 C         140.6520  144.2477  159.0059 C.3     1  UNL1        0.1167
      4 C         139.9686  144.5570  160.3049 C.3     1  UNL1        0.0511
      5 C         140.4695  143.9459  161.5800 C.2     1  UNL1       -0.0037
      6 C         141.6537  143.0256  161.5560 C.2     1  UNL1        0.0800
      7 N         141.9194  142.5755  162.9620 N.2     1  UNL1       -0.2519
      8 C         140.8994  143.2176  163.8549 C.2     1  UNL1        0.0627
      9 C         140.6708  143.1404  165.3353 C.3     1  UNL1        0.0717
     10 C         139.5461  143.9103  165.9616 C.2     1  UNL1       -0.0198
     11 C         138.6499  144.7572  165.1075 C.2     1  UNL1       -0.0042
     12 C         138.8785  144.8344  163.6270 C.2     1  UNL1        0.0006
     13 C         140.0033  144.0645  163.0007 C.2     1  UNL1        0.0111
     14 H         141.5968  142.5556  158.3597 H       1  UNL1        0.1246
     15 C         143.1766  141.8993  161.1940 C.ar    1  UNL1        0.2493
     16 N         142.8911  140.4950  161.6366 N.ar    1  UNL1       -0.1285
     17 N         143.9870  140.0710  162.5691 N.ar    1  UNL1       -0.1809
     18 C         144.1002  138.7386  163.2485 C.3     1  UNL1        0.1605
     19 C         144.9498  141.2135  162.7026 C.ar    1  UNL1        0.4389
     20 O         146.1948  141.2241  163.5391 O.2     1  UNL1       -0.2210
     21 O         144.4489  142.3435  161.8527 O.2     1  UNL1       -0.3896
     22 C         140.1511  144.8589  157.7309 C.ar    1  UNL1        0.1319
     23 N         140.3431  146.2830  157.3009 N.ar    1  UNL1       -0.2282
     24 C         139.6810  146.4575  155.9663 C.ar    1  UNL1        0.1171
     25 C         139.0798  145.1411  155.5715 C.ar    1  UNL1        0.0942
     26 N         139.3704  144.1531  156.6621 N.ar    1  UNL1       -0.3385
     27 H         139.0967  143.2075  156.6742 H       1  UNL1        0.1672
     28 C         139.6291  147.7257  155.1668 C.ar    1  UNL1        0.1006
     29 C         140.3022  147.7964  153.8281 C.ar    1  UNL1        0.0230
     30 C         140.2504  149.0645  153.0287 C.ar    1  UNL1        0.0328
     31 C         139.5255  150.2619  153.5679 C.ar    1  UNL1        0.1592
     32 F         139.4737  151.5301  152.7684 F       1  UNL1       -0.2025
     33 C         138.8525  150.1912  154.9066 C.ar    1  UNL1        0.1284
     34 N         138.9043  148.9231  155.7060 N.ar    1  UNL1       -0.2399
     35 N         145.1462  141.8785  157.7129 N.ar    1  UNL1       -0.2497
     36 C         144.4253  142.8552  158.5941 C.ar    1  UNL1        0.0944
     37 C         143.3121  142.1234  159.2834 C.ar    1  UNL1        0.0439
     38 C         143.3449  140.6945  158.8282 C.ar    1  UNL1        0.1194
     39 N         144.4785  140.5432  157.8576 N.ar    1  UNL1       -0.1679
     40 C         147.4825  142.9679  157.3888 C.3     1  UNL1        0.0284
     41 C         146.3275  142.1837  156.8402 C.3     1  UNL1        0.1276
@<TRIPOS>BOND
     1    40    41    1
     2    41    35    1
     3    35    36   ar
     4    36    37   ar
     5     1    37    1
     6     1    15    1
     7    15    16   ar
     8    16    17   ar
     9    17    18    1
    10    17    19   ar
    11    19    20    2
    12    19    21   ar
    13     1     2    1
    14     2     3    1
    15     3    22    1
    16    22    23   ar
    17    23    24   ar
    18    24    28    1
    19    28    29   ar
    20    29    30   ar
    21    30    31   ar
    22    31    32    1
    23    31    33   ar
    24    33    34   ar
    25    24    25   ar
    26    25    26   ar
    27     3     4    1
    28     4     5    1
    29     5     6    2
    30     6     7    1
    31     7     8    2
    32     8     9    1
    33     9    10    1
    34    10    11    2
    35    11    12    1
    36    12    13    2
    37    37    38   ar
    38    38    39   ar
    39    39    35   ar
    40     6     1    1
    41    13     8    1
    42    21    15   ar
    43    26    22   ar
    44    13     5    1
    45    34    28   ar
    46     2    14    1
    47    26    27    1
@<TRIPOS>MOLECULE
*****
 41 47 0 0 0
SMALL
GASTEIGER

@<TRIPOS>ATOM
      1 C         140.9147  141.4825  159.8699 C.3     1  UNL1        0.1707
      2 N         141.2107  140.4068  158.8674 N.3     1  UNL1       -0.2797
      3 C         142.4706  139.6008  158.9822 C.3     1  UNL1        0.1167
      4 C         143.4344  139.8706  160.0995 C.3     1  UNL1        0.0511
      5 C         143.1383  140.9464  161.1020 C.2     1  UNL1       -0.0037
      6 C         141.8785  141.7523  160.9872 C.2     1  UNL1        0.0800
      7 N         141.8558  142.7402  162.1157 N.2     1  UNL1       -0.2519
      8 C         143.1016  142.5448  162.9279 C.2     1  UNL1        0.0627
      9 C         143.6167  143.2332  164.1571 C.3     1  UNL1        0.0717
     10 C         144.9244  142.8129  164.7597 C.2     1  UNL1       -0.0198
     11 C         145.7170  141.7042  164.1332 C.2     1  UNL1       -0.0042
     12 C         145.2020  141.0158  162.9040 C.2     1  UNL1        0.0006
     13 C         143.8943  141.4362  162.3014 C.2     1  UNL1        0.0111
     14 H         141.2305  140.8552  157.9514 H       1  UNL1        0.1246
     15 C         140.1974  142.5994  160.5687 C.ar    1  UNL1        0.2493
     16 N         139.1477  142.4459  161.6291 N.ar    1  UNL1       -0.1285
     17 N         138.7055  143.8175  162.0455 N.ar    1  UNL1       -0.1809
     18 C         137.6689  144.1325  163.0828 C.3     1  UNL1        0.1605
     19 C         139.4820  144.8185  161.2424 C.ar    1  UNL1        0.4389
     20 O         139.3581  146.3105  161.3357 O.2     1  UNL1       -0.2210
     21 O         140.4040  144.0657  160.3297 O.2     1  UNL1       -0.3896
     22 C         142.7667  138.5250  157.9796 C.ar    1  UNL1        0.1319
     23 N         142.3497  137.0876  158.0798 N.ar    1  UNL1       -0.2282
     24 C         142.8570  136.3720  156.8630 C.ar    1  UNL1        0.1171
     25 C         143.5876  137.3670  156.0110 C.ar    1  UNL1        0.0942
     26 N         143.5318  138.6977  156.7010 N.ar    1  UNL1       -0.3385
     27 H         143.9278  139.5370  156.3725 H       1  UNL1        0.1672
     28 C         142.6671  134.9167  156.5529 C.ar    1  UNL1        0.1006
     29 C         141.7120  134.4981  155.4747 C.ar    1  UNL1        0.0230
     30 C         141.5220  133.0429  155.1645 C.ar    1  UNL1        0.0328
     31 C         142.2872  132.0063  155.9325 C.ar    1  UNL1        0.1592
     32 F         142.0973  130.5510  155.6223 F       1  UNL1       -0.2025
     33 C         143.2424  132.4249  157.0107 C.ar    1  UNL1        0.1284
     34 N         143.4323  133.8801  157.3209 N.ar    1  UNL1       -0.2399
     35 N         138.1228  142.3989  157.3340 N.ar    1  UNL1       -0.2497
     36 C         139.4541  142.6679  157.9708 C.ar    1  UNL1        0.0944
     37 C         139.7018  141.6006  158.9953 C.ar    1  UNL1        0.0439
     38 C         138.5237  140.6721  158.9917 C.ar    1  UNL1        0.1194
     39 N         137.5478  141.1656  157.9649 N.ar    1  UNL1       -0.1679
     40 C         136.4151  142.6157  155.3880 C.3     1  UNL1        0.0284
     41 C         137.4795  143.2194  156.2555 C.3     1  UNL1        0.1276
@<TRIPOS>BOND
     1    40    41    1
     2    41    35    1
     3    35    36   ar
     4    36    37   ar
     5     1    37    1
     6     1    15    1
     7    15    16   ar
     8    16    17   ar
     9    17    18    1
    10    17    19   ar
    11    19    20    2
    12    19    21   ar
    13     1     2    1
    14     2     3    1
    15     3    22    1
    16    22    23   ar
    17    23    24   ar
    18    24    28    1
    19    28    29   ar
    20    29    30   ar
    21    30    31   ar
    22    31    32    1
    23    31    33   ar
    24    33    34   ar
    25    24    25   ar
    26    25    26   ar
    27     3     4    1
    28     4     5    1
    29     5     6    2
    30     6     7    1
    31     7     8    2
    32     8     9    1
    33     9    10    1
    34    10    11    2
    35    11    12    1
    36    12    13    2
    37    37    38   ar
    38    38    39   ar
    39    39    35   ar
    40     6     1    1
    41    13     8    1
    42    21    15   ar
    43    26    22   ar
    44    13     5    1
    45    34    28   ar
    46     2    14    1
    47    26    27    1
@<TRIPOS>MOLECULE
*****
 41 47 0 0 0
SMALL
GASTEIGER

@<TRIPOS>ATOM
      1 C         141.2615  141.3355  160.4049 C.3     1  UNL1        0.1707
      2 N         141.7726  140.4449  159.3116 N.3     1  UNL1       -0.2797
      3 C         141.6608  138.9550  159.4440 C.3     1  UNL1        0.1167
      4 C         141.0378  138.3557  160.6699 C.3     1  UNL1        0.0511
      5 C         140.5267  139.2463  161.7633 C.2     1  UNL1       -0.0037
      6 C         140.6385  140.7362  161.6308 C.2     1  UNL1        0.0800
      7 N         140.0503  141.3565  162.8634 N.2     1  UNL1       -0.2519
      8 C         139.5750  140.2500  163.7576 C.2     1  UNL1        0.0627
      9 C         138.9121  140.2615  165.1031 C.3     1  UNL1        0.0717
     10 C         138.5437  138.9688  165.7687 C.2     1  UNL1       -0.0198
     11 C         138.8381  137.6646  165.0888 C.2     1  UNL1       -0.0042
     12 C         139.5009  137.6530  163.7433 C.2     1  UNL1        0.0006
     13 C         139.8694  138.9458  163.0777 C.2     1  UNL1        0.0111
     14 H         142.7639  140.6569  159.1984 H       1  UNL1        0.1246
     15 C         140.9262  142.5850  161.1643 C.ar    1  UNL1        0.2493
     16 N         141.8286  143.3024  162.1239 N.ar    1  UNL1       -0.1285
     17 N         141.0897  144.4972  162.6499 N.ar    1  UNL1       -0.1809
     18 C         141.6173  145.4957  163.6371 C.3     1  UNL1        0.1605
     19 C         139.7307  144.5181  162.0153 C.ar    1  UNL1        0.4389
     20 O         138.6606  145.5412  162.2566 O.2     1  UNL1       -0.2210
     21 O         139.6297  143.3363  161.0971 O.2     1  UNL1       -0.3896
     22 C         142.1719  138.0643  158.3506 C.ar    1  UNL1        0.1319
     23 N         142.5486  136.6195  158.4941 N.ar    1  UNL1       -0.2282
     24 C         143.0056  136.1243  157.1540 C.ar    1  UNL1        0.1171
     25 C         142.9113  137.2631  156.1823 C.ar    1  UNL1        0.0942
     26 N         142.3961  138.4621  156.9218 N.ar    1  UNL1       -0.3385
     27 H         142.2336  139.3536  156.5370 H       1  UNL1        0.1672
     28 C         143.4745  134.7343  156.8406 C.ar    1  UNL1        0.1006
     29 C         143.2241  134.1464  155.4836 C.ar    1  UNL1        0.0230
     30 C         143.6930  132.7565  155.1702 C.ar    1  UNL1        0.0328
     31 C         144.4123  131.9545  156.2139 C.ar    1  UNL1        0.1592
     32 F         144.8812  130.5645  155.9005 F       1  UNL1       -0.2025
     33 C         144.6627  132.5424  157.5709 C.ar    1  UNL1        0.1284
     34 N         144.1938  133.9323  157.8843 N.ar    1  UNL1       -0.2399
     35 N         141.8582  144.0300  157.6757 N.ar    1  UNL1       -0.2497
     36 C         140.9502  143.0913  158.4136 C.ar    1  UNL1        0.0944
     37 C         141.7680  142.3688  159.4428 C.ar    1  UNL1        0.0439
     38 C         143.1813  142.8610  159.3409 C.ar    1  UNL1        0.1194
     39 N         143.2370  143.8878  158.2488 N.ar    1  UNL1       -0.1679
     40 C         140.5233  146.0920  156.8293 C.3     1  UNL1        0.0284
     41 C         141.4575  144.9497  156.5604 C.3     1  UNL1        0.1276
@<TRIPOS>BOND
     1    40    41    1
     2    41    35    1
     3    35    36   ar
     4    36    37   ar
     5     1    37    1
     6     1    15    1
     7    15    16   ar
     8    16    17   ar
     9    17    18    1
    10    17    19   ar
    11    19    20    2
    12    19    21   ar
    13     1     2    1
    14     2     3    1
    15     3    22    1
    16    22    23   ar
    17    23    24   ar
    18    24    28    1
    19    28    29   ar
    20    29    30   ar
    21    30    31   ar
    22    31    32    1
    23    31    33   ar
    24    33    34   ar
    25    24    25   ar
    26    25    26   ar
    27     3     4    1
    28     4     5    1
    29     5     6    2
    30     6     7    1
    31     7     8    2
    32     8     9    1
    33     9    10    1
    34    10    11    2
    35    11    12    1
    36    12    13    2
    37    37    38   ar
    38    38    39   ar
    39    39    35   ar
    40     6     1    1
    41    13     8    1
    42    21    15   ar
    43    26    22   ar
    44    13     5    1
    45    34    28   ar
    46     2    14    1
    47    26    27    1
@<TRIPOS>MOLECULE
*****
 41 47 0 0 0
SMALL
GASTEIGER

@<TRIPOS>ATOM
      1 C         141.1204  140.2278  159.7311 C.3     1  UNL1        0.1707
      2 N         141.6703  138.9839  159.0984 N.3     1  UNL1       -0.2797
      3 C         142.3472  139.0586  157.7619 C.3     1  UNL1        0.1167
      4 C         142.4741  140.3772  157.0581 C.3     1  UNL1        0.0511
      5 C         141.9242  141.6210  157.6908 C.2     1  UNL1       -0.0037
      6 C         141.2473  141.5463  159.0273 C.2     1  UNL1        0.0800
      7 N         140.8059  142.9303  159.4012 N.2     1  UNL1       -0.2519
      8 C         141.2099  143.8603  158.2959 C.2     1  UNL1        0.0627
      9 C         141.0378  145.3394  158.1154 C.3     1  UNL1        0.0717
     10 C         141.5568  146.0093  156.8778 C.2     1  UNL1       -0.0198
     11 C         142.2479  145.2001  155.8206 C.2     1  UNL1       -0.0042
     12 C         142.4201  143.7210  156.0011 C.2     1  UNL1        0.0006
     13 C         141.9011  143.0511  157.2387 C.2     1  UNL1        0.0111
     14 H         140.8898  138.3351  158.9973 H       1  UNL1        0.1246
     15 C         140.4449  141.1216  160.7285 C.ar    1  UNL1        0.2493
     16 N         141.1224  141.8931  161.8219 N.ar    1  UNL1       -0.1285
     17 N         140.0694  142.6491  162.5768 N.ar    1  UNL1       -0.1809
     18 C         140.3037  143.5511  163.7521 C.3     1  UNL1        0.1605
     19 C         138.7412  142.3447  161.9499 C.ar    1  UNL1        0.4389
     20 O         137.4138  142.8889  162.3883 O.2     1  UNL1       -0.2210
     21 O         138.9732  141.4006  160.8076 O.2     1  UNL1       -0.3896
     22 C         142.8972  137.8147  157.1291 C.ar    1  UNL1        0.1319
     23 N         142.5669  136.4054  157.5225 N.ar    1  UNL1       -0.2282
     24 C         143.3395  135.4815  156.6284 C.ar    1  UNL1        0.1171
     25 C         144.1473  136.3198  155.6825 C.ar    1  UNL1        0.0942
     26 N         143.8739  137.7618  155.9919 N.ar    1  UNL1       -0.3385
     27 H         144.2666  138.5373  155.5298 H       1  UNL1        0.1672
     28 C         143.3096  133.9824  156.6725 C.ar    1  UNL1        0.1006
     29 C         144.3323  133.2352  157.4762 C.ar    1  UNL1        0.0230
     30 C         144.3024  131.7361  157.5204 C.ar    1  UNL1        0.0328
     31 C         143.2499  130.9843  156.7608 C.ar    1  UNL1        0.1592
     32 F         143.2200  129.4852  156.8050 F       1  UNL1       -0.2025
     33 C         142.2273  131.7315  155.9571 C.ar    1  UNL1        0.1284
     34 N         142.2571  133.2305  155.9130 N.ar    1  UNL1       -0.2399
     35 N         140.8413  137.8176  162.7607 N.ar    1  UNL1       -0.2497
     36 C         141.5801  138.8687  161.9864 C.ar    1  UNL1        0.0944
     37 C         140.7589  139.2196  160.7813 C.ar    1  UNL1        0.0439
     38 C         139.5125  138.3854  160.8107 C.ar    1  UNL1        0.1194
     39 N         139.5636  137.5189  162.0341 N.ar    1  UNL1       -0.1679
     40 C         142.0129  137.9959  165.0728 C.3     1  UNL1        0.0284
     41 C         141.2999  137.1775  164.0374 C.3     1  UNL1        0.1276
@<TRIPOS>BOND
     1    40    41    1
     2    41    35    1
     3    35    36   ar
     4    36    37   ar
     5     1    37    1
     6     1    15    1
     7    15    16   ar
     8    16    17   ar
     9    17    18    1
    10    17    19   ar
    11    19    20    2
    12    19    21   ar
    13     1     2    1
    14     2     3    1
    15     3    22    1
    16    22    23   ar
    17    23    24   ar
    18    24    28    1
    19    28    29   ar
    20    29    30   ar
    21    30    31   ar
    22    31    32    1
    23    31    33   ar
    24    33    34   ar
    25    24    25   ar
    26    25    26   ar
    27     3     4    1
    28     4     5    1
    29     5     6    2
    30     6     7    1
    31     7     8    2
    32     8     9    1
    33     9    10    1
    34    10    11    2
    35    11    12    1
    36    12    13    2
    37    37    38   ar
    38    38    39   ar
    39    39    35   ar
    40     6     1    1
    41    13     8    1
    42    21    15   ar
    43    26    22   ar
    44    13     5    1
    45    34    28   ar
    46     2    14    1
    47    26    27    1
@<TRIPOS>MOLECULE
*****
 41 47 0 0 0
SMALL
GASTEIGER

@<TRIPOS>ATOM
      1 C         141.4827  142.1512  159.3771 C.3     1  UNL1        0.1707
      2 N         140.2187  141.7524  158.6748 N.3     1  UNL1       -0.2797
      3 C         140.2433  141.4351  157.2090 C.3     1  UNL1        0.1167
      4 C         141.5319  141.5165  156.4455 C.3     1  UNL1        0.0511
      5 C         142.7959  141.9153  157.1478 C.2     1  UNL1       -0.0037
      6 C         142.7713  142.2326  158.6136 C.2     1  UNL1        0.0800
      7 N         144.1653  142.5944  159.0329 N.2     1  UNL1       -0.2519
      8 C         145.0515  142.5006  157.8263 C.2     1  UNL1        0.0627
      9 C         146.5196  142.7432  157.6380 C.3     1  UNL1        0.0717
     10 C         147.1415  142.5661  156.2845 C.2     1  UNL1       -0.0198
     11 C         146.2951  142.1463  155.1194 C.2     1  UNL1       -0.0042
     12 C         144.8269  141.9038  155.3077 C.2     1  UNL1        0.0006
     13 C         144.2051  142.0809  156.6612 C.2     1  UNL1        0.0111
     14 H         139.5583  142.5197  158.7990 H       1  UNL1        0.1246
     15 C         142.4113  142.5725  160.4773 C.ar    1  UNL1        0.2493
     16 N         143.1991  141.6559  161.3656 N.ar    1  UNL1       -0.1285
     17 N         143.9897  142.5015  162.3196 N.ar    1  UNL1       -0.1809
     18 C         144.9167  141.9964  163.3851 C.3     1  UNL1        0.1605
     19 C         143.6905  143.9406  162.0209 C.ar    1  UNL1        0.4389
     20 O         144.2658  145.1275  162.7353 O.2     1  UNL1       -0.2210
     21 O         142.7149  143.9845  160.8822 O.2     1  UNL1       -0.3896
     22 C         138.9793  141.0362  156.5066 C.ar    1  UNL1        0.1319
     23 N         137.5891  141.1577  157.0567 N.ar    1  UNL1       -0.2282
     24 C         136.6342  140.6425  156.0210 C.ar    1  UNL1        0.1171
     25 C         137.4342  140.2027  154.8308 C.ar    1  UNL1        0.0942
     26 N         138.8836  140.4460  155.1310 N.ar    1  UNL1       -0.3385
     27 H         139.6393  140.2524  154.5305 H       1  UNL1        0.1672
     28 C         135.1413  140.5784  156.1524 C.ar    1  UNL1        0.1006
     29 C         134.2714  141.3594  155.2125 C.ar    1  UNL1        0.0230
     30 C         132.7786  141.2953  155.3438 C.ar    1  UNL1        0.0328
     31 C         132.1556  140.4503  156.4151 C.ar    1  UNL1        0.1592
     32 F         130.6627  140.3862  156.5465 F       1  UNL1       -0.2025
     33 C         133.0254  139.6693  157.3550 C.ar    1  UNL1        0.1284
     34 N         134.5183  139.7333  157.2237 N.ar    1  UNL1       -0.2399
     35 N         138.8872  143.0343  162.1246 N.ar    1  UNL1       -0.2497
     36 C         139.7178  143.4167  160.9355 C.ar    1  UNL1        0.0944
     37 C         140.5167  142.2161  160.5227 C.ar    1  UNL1        0.0439
     38 C         140.1798  141.0917  161.4568 C.ar    1  UNL1        0.1194
     39 N         139.1728  141.5974  162.4468 N.ar    1  UNL1       -0.1679
     40 C         137.8250  143.8388  164.3550 C.3     1  UNL1        0.0284
     41 C         137.9378  143.9314  162.8621 C.3     1  UNL1        0.1276
@<TRIPOS>BOND
     1    40    41    1
     2    41    35    1
     3    35    36   ar
     4    36    37   ar
     5     1    37    1
     6     1    15    1
     7    15    16   ar
     8    16    17   ar
     9    17    18    1
    10    17    19   ar
    11    19    20    2
    12    19    21   ar
    13     1     2    1
    14     2     3    1
    15     3    22    1
    16    22    23   ar
    17    23    24   ar
    18    24    28    1
    19    28    29   ar
    20    29    30   ar
    21    30    31   ar
    22    31    32    1
    23    31    33   ar
    24    33    34   ar
    25    24    25   ar
    26    25    26   ar
    27     3     4    1
    28     4     5    1
    29     5     6    2
    30     6     7    1
    31     7     8    2
    32     8     9    1
    33     9    10    1
    34    10    11    2
    35    11    12    1
    36    12    13    2
    37    37    38   ar
    38    38    39   ar
    39    39    35   ar
    40     6     1    1
    41    13     8    1
    42    21    15   ar
    43    26    22   ar
    44    13     5    1
    45    34    28   ar
    46     2    14    1
    47    26    27    1
@<TRIPOS>MOLECULE
*****
 41 47 0 0 0
SMALL
GASTEIGER

@<TRIPOS>ATOM
      1 C         141.3255  140.2953  159.8582 C.3     1  UNL1        0.1707
      2 N         141.8367  139.0501  159.1962 N.3     1  UNL1       -0.2797
      3 C         142.4421  139.1238  157.8258 C.3     1  UNL1        0.1167
      4 C         142.5363  140.4427  157.1174 C.3     1  UNL1        0.0511
      5 C         142.0251  141.6878  157.7794 C.2     1  UNL1       -0.0037
      6 C         141.4197  141.6141  159.1498 C.2     1  UNL1        0.0800
      7 N         141.0037  142.9992  159.5478 N.2     1  UNL1       -0.2519
      8 C         141.3520  143.9289  158.4234 C.2     1  UNL1        0.0627
      9 C         141.1759  145.4088  158.2535 C.3     1  UNL1        0.0717
     10 C         141.6310  146.0782  156.9907 C.2     1  UNL1       -0.0198
     11 C         142.2623  145.2677  155.8978 C.2     1  UNL1       -0.0042
     12 C         142.4384  143.7878  156.0676 C.2     1  UNL1        0.0006
     13 C         141.9833  143.1184  157.3304 C.2     1  UNL1        0.0111
     14 H         141.0495  138.4042  159.1360 H       1  UNL1        0.1246
     15 C         140.7070  141.1904  160.8908 C.ar    1  UNL1        0.2493
     16 N         139.2410  141.4569  161.0625 N.ar    1  UNL1       -0.1285
     17 N         139.0740  142.4075  162.2108 N.ar    1  UNL1       -0.1809
     18 C         137.7725  142.9429  162.7299 C.3     1  UNL1        0.1605
     19 C         140.4368  142.7284  162.7488 C.ar    1  UNL1        0.4389
     20 O         140.7376  143.6413  163.9004 O.2     1  UNL1       -0.2210
     21 O         141.4462  141.9762  161.9330 O.2     1  UNL1       -0.3896
     22 C         142.9533  137.8786  157.1637 C.ar    1  UNL1        0.1319
     23 N         142.6189  136.4703  157.5568 N.ar    1  UNL1       -0.2282
     24 C         143.3475  135.5444  156.6284 C.ar    1  UNL1        0.1171
     25 C         144.1322  136.3807  155.6615 C.ar    1  UNL1        0.0942
     26 N         143.8886  137.8233  155.9924 N.ar    1  UNL1       -0.3385
     27 H         144.2748  138.5978  155.5231 H       1  UNL1        0.1672
     28 C         143.2998  134.0455  156.6612 C.ar    1  UNL1        0.1006
     29 C         142.2205  133.3132  155.9203 C.ar    1  UNL1        0.0230
     30 C         142.1727  131.8143  155.9530 C.ar    1  UNL1        0.0328
     31 C         143.2042  131.0478  156.7266 C.ar    1  UNL1        0.1592
     32 F         143.1565  129.5489  156.7594 F       1  UNL1       -0.2025
     33 C         144.2835  131.7802  157.4675 C.ar    1  UNL1        0.1284
     34 N         144.3313  133.2790  157.4347 N.ar    1  UNL1       -0.2399
     35 N         141.1287  137.9777  162.9655 N.ar    1  UNL1       -0.2497
     36 C         141.7860  139.0856  162.1969 C.ar    1  UNL1        0.0944
     37 C         141.0165  139.2873  160.9252 C.ar    1  UNL1        0.0439
     38 C         139.8837  138.3042  160.9079 C.ar    1  UNL1        0.1194
     39 N         139.9531  137.4948  162.1689 N.ar    1  UNL1       -0.1679
     40 C         142.5057  138.2478  165.1520 C.3     1  UNL1        0.0284
     41 C         141.5697  137.4461  164.2971 C.3     1  UNL1        0.1276
@<TRIPOS>BOND
     1    40    41    1
     2    41    35    1
     3    35    36   ar
     4    36    37   ar
     5     1    37    1
     6     1    15    1
     7    15    16   ar
     8    16    17   ar
     9    17    18    1
    10    17    19   ar
    11    19    20    2
    12    19    21   ar
    13     1     2    1
    14     2     3    1
    15     3    22    1
    16    22    23   ar
    17    23    24   ar
    18    24    28    1
    19    28    29   ar
    20    29    30   ar
    21    30    31   ar
    22    31    32    1
    23    31    33   ar
    24    33    34   ar
    25    24    25   ar
    26    25    26   ar
    27     3     4    1
    28     4     5    1
    29     5     6    2
    30     6     7    1
    31     7     8    2
    32     8     9    1
    33     9    10    1
    34    10    11    2
    35    11    12    1
    36    12    13    2
    37    37    38   ar
    38    38    39   ar
    39    39    35   ar
    40     6     1    1
    41    13     8    1
    42    21    15   ar
    43    26    22   ar
    44    13     5    1
    45    34    28   ar
    46     2    14    1
    47    26    27    1
@<TRIPOS>MOLECULE
*****
 41 47 0 0 0
SMALL
GASTEIGER

@<TRIPOS>ATOM
      1 C         142.0672  141.0791  159.7662 C.3     1  UNL1        0.1707
      2 N         142.0680  139.7097  159.1542 N.3     1  UNL1       -0.2797
      3 C         141.6262  139.5231  157.7330 C.3     1  UNL1        0.1167
      4 C         141.1835  140.7060  156.9237 C.3     1  UNL1        0.0511
      5 C         141.1827  142.0755  157.5357 C.2     1  UNL1       -0.0037
      6 C         141.6245  142.2620  158.9570 C.2     1  UNL1        0.0800
      7 N         141.5175  143.7212  159.2878 N.2     1  UNL1       -0.2519
      8 C         141.0096  144.4364  158.0711 C.2     1  UNL1        0.0627
      9 C         140.7088  145.8824  157.8093 C.3     1  UNL1        0.0717
     10 C         140.2010  146.3113  156.4647 C.2     1  UNL1       -0.0198
     11 C         139.9941  145.2941  155.3818 C.2     1  UNL1       -0.0042
     12 C         140.2949  143.8482  155.6435 C.2     1  UNL1        0.0006
     13 C         140.8026  143.4193  156.9882 C.2     1  UNL1        0.0111
     14 H         141.4588  139.1292  159.7306 H       1  UNL1        0.1246
     15 C         142.2411  142.1694  160.7818 C.ar    1  UNL1        0.2493
     16 N         141.2023  142.6411  161.7555 N.ar    1  UNL1       -0.1285
     17 N         141.8036  143.7425  162.5774 N.ar    1  UNL1       -0.1809
     18 C         141.1152  144.5016  163.6727 C.3     1  UNL1        0.1605
     19 C         143.2139  143.9515  162.1115 C.ar    1  UNL1        0.4389
     20 O         144.1837  144.9563  162.6592 O.2     1  UNL1       -0.2210
     21 O         143.4844  142.9792  161.0017 O.2     1  UNL1       -0.3896
     22 C         141.6270  138.1536  157.1209 C.ar    1  UNL1        0.1319
     23 N         142.6413  137.0771  157.3703 N.ar    1  UNL1       -0.2282
     24 C         142.2549  135.8784  156.5556 C.ar    1  UNL1        0.1171
     25 C         141.0018  136.2142  155.8026 C.ar    1  UNL1        0.0942
     26 N         140.6138  137.6203  156.1520 N.ar    1  UNL1       -0.3385
     27 H         139.8314  138.1077  155.8061 H       1  UNL1        0.1672
     28 C         142.9922  134.5731  156.5030 C.ar    1  UNL1        0.1006
     29 C         142.9328  133.7275  155.2656 C.ar    1  UNL1        0.0230
     30 C         143.6700  132.4222  155.2130 C.ar    1  UNL1        0.0328
     31 C         144.4666  131.9627  156.3979 C.ar    1  UNL1        0.1592
     32 F         145.2039  130.6574  156.3454 F       1  UNL1       -0.2025
     33 C         144.5261  132.8083  157.6354 C.ar    1  UNL1        0.1284
     34 N         143.7888  134.1135  157.6880 N.ar    1  UNL1       -0.2399
     35 N         142.6420  138.9614  162.9678 N.ar    1  UNL1       -0.2497
     36 C         141.7293  139.6795  162.0183 C.ar    1  UNL1        0.0944
     37 C         142.5702  140.2749  160.9281 C.ar    1  UNL1        0.0439
     38 C         144.0026  139.9249  161.2040 C.ar    1  UNL1        0.1194
     39 N         144.0469  139.1131  162.4646 N.ar    1  UNL1       -0.1679
     40 C         141.1960  137.1323  164.1137 C.3     1  UNL1        0.0284
     41 C         142.2232  138.2216  164.2037 C.3     1  UNL1        0.1276
@<TRIPOS>BOND
     1    40    41    1
     2    41    35    1
     3    35    36   ar
     4    36    37   ar
     5     1    37    1
     6     1    15    1
     7    15    16   ar
     8    16    17   ar
     9    17    18    1
    10    17    19   ar
    11    19    20    2
    12    19    21   ar
    13     1     2    1
    14     2     3    1
    15     3    22    1
    16    22    23   ar
    17    23    24   ar
    18    24    28    1
    19    28    29   ar
    20    29    30   ar
    21    30    31   ar
    22    31    32    1
    23    31    33   ar
    24    33    34   ar
    25    24    25   ar
    26    25    26   ar
    27     3     4    1
    28     4     5    1
    29     5     6    2
    30     6     7    1
    31     7     8    2
    32     8     9    1
    33     9    10    1
    34    10    11    2
    35    11    12    1
    36    12    13    2
    37    37    38   ar
    38    38    39   ar
    39    39    35   ar
    40     6     1    1
    41    13     8    1
    42    21    15   ar
    43    26    22   ar
    44    13     5    1
    45    34    28   ar
    46     2    14    1
    47    26    27    1
@<TRIPOS>MOLECULE
*****
 41 47 0 0 0
SMALL
GASTEIGER

@<TRIPOS>ATOM
      1 C         142.6130  140.2228  159.2480 C.3     1  UNL1        0.1707
      2 N         143.3995  140.6141  158.0322 N.3     1  UNL1       -0.2797
      3 C         144.2931  141.8181  158.0726 C.3     1  UNL1        0.1167
      4 C         144.4003  142.6309  159.3287 C.3     1  UNL1        0.0511
      5 C         143.6138  142.2396  160.5446 C.2     1  UNL1       -0.0037
      6 C         142.7201  141.0356  160.5042 C.2     1  UNL1        0.0800
      7 N         142.0710  140.8950  161.8491 N.2     1  UNL1       -0.2519
      8 C         142.5634  142.0121  162.7207 C.2     1  UNL1        0.0627
      9 C         142.2667  142.3799  164.1442 C.3     1  UNL1        0.0717
     10 C         142.9236  143.5788  164.7615 C.2     1  UNL1       -0.0198
     11 C         143.8771  144.4099  163.9553 C.2     1  UNL1       -0.0042
     12 C         144.1738  144.0420  162.5317 C.2     1  UNL1        0.0006
     13 C         143.5169  142.8431  161.9144 C.2     1  UNL1        0.0111
     14 H         142.7250  140.7729  157.2837 H       1  UNL1        0.1246
     15 C         141.6762  139.4569  160.1346 C.ar    1  UNL1        0.2493
     16 N         140.1836  139.5995  160.1726 N.ar    1  UNL1       -0.1285
     17 N         139.6527  138.6446  161.2003 N.ar    1  UNL1       -0.1809
     18 C         138.2104  138.4558  161.5665 C.3     1  UNL1        0.1605
     19 C         140.8172  137.9118  161.7976 C.ar    1  UNL1        0.4389
     20 O         140.7440  136.8614  162.8659 O.2     1  UNL1       -0.2210
     21 O         142.0679  138.4138  161.1389 O.2     1  UNL1       -0.3896
     22 C         145.0797  142.2094  156.8567 C.ar    1  UNL1        0.1319
     23 N         146.5500  141.9949  156.6511 N.ar    1  UNL1       -0.2282
     24 C         146.9130  142.5368  155.3003 C.ar    1  UNL1        0.1171
     25 C         145.6672  143.0863  154.6712 C.ar    1  UNL1        0.0942
     26 N         144.5341  142.8840  155.6331 N.ar    1  UNL1       -0.3385
     27 H         143.5969  143.1476  155.4869 H       1  UNL1        0.1672
     28 C         148.2817  142.5304  154.6866 C.ar    1  UNL1        0.1006
     29 C         149.3667  141.6827  155.2819 C.ar    1  UNL1        0.0230
     30 C         150.7353  141.6763  154.6681 C.ar    1  UNL1        0.0328
     31 C         151.0190  142.5175  153.4591 C.ar    1  UNL1        0.1592
     32 F         152.3878  142.5111  152.8453 F       1  UNL1       -0.2025
     33 C         149.9341  143.3652  152.8638 C.ar    1  UNL1        0.1284
     34 N         148.5655  143.3716  153.4775 N.ar    1  UNL1       -0.2399
     35 N         142.0707  137.0447  157.0868 N.ar    1  UNL1       -0.2497
     36 C         142.8255  137.7991  158.1409 C.ar    1  UNL1        0.0944
     37 C         142.1805  139.1440  158.2998 C.ar    1  UNL1        0.0439
     38 C         141.0270  139.2207  157.3439 C.ar    1  UNL1        0.1194
     39 N         140.9592  137.9233  156.5943 N.ar    1  UNL1       -0.1679
     40 C         143.7576  135.3072  156.1458 C.3     1  UNL1        0.0284
     41 C         142.3741  135.6555  156.6092 C.3     1  UNL1        0.1276
@<TRIPOS>BOND
     1    40    41    1
     2    41    35    1
     3    35    36   ar
     4    36    37   ar
     5     1    37    1
     6     1    15    1
     7    15    16   ar
     8    16    17   ar
     9    17    18    1
    10    17    19   ar
    11    19    20    2
    12    19    21   ar
    13     1     2    1
    14     2     3    1
    15     3    22    1
    16    22    23   ar
    17    23    24   ar
    18    24    28    1
    19    28    29   ar
    20    29    30   ar
    21    30    31   ar
    22    31    32    1
    23    31    33   ar
    24    33    34   ar
    25    24    25   ar
    26    25    26   ar
    27     3     4    1
    28     4     5    1
    29     5     6    2
    30     6     7    1
    31     7     8    2
    32     8     9    1
    33     9    10    1
    34    10    11    2
    35    11    12    1
    36    12    13    2
    37    37    38   ar
    38    38    39   ar
    39    39    35   ar
    40     6     1    1
    41    13     8    1
    42    21    15   ar
    43    26    22   ar
    44    13     5    1
    45    34    28   ar
    46     2    14    1
    47    26    27    1
@<TRIPOS>MOLECULE
*****
 41 47 0 0 0
SMALL
GASTEIGER

@<TRIPOS>ATOM
      1 C         142.7921  139.8862  160.0690 C.3     1  UNL1        0.1707
      2 N         142.7792  140.5263  161.4255 N.3     1  UNL1       -0.2797
      3 C         143.6997  141.6728  161.7226 C.3     1  UNL1        0.1167
      4 C         144.6330  142.1792  160.6632 C.3     1  UNL1        0.0511
      5 C         144.6460  141.5392  159.3067 C.2     1  UNL1       -0.0037
      6 C         143.7255  140.3927  159.0096 C.2     1  UNL1        0.0800
      7 N         143.9607  139.9651  157.5912 N.2     1  UNL1       -0.2519
      8 C         145.0265  140.8473  157.0117 C.2     1  UNL1        0.0627
      9 C         145.6660  140.8904  155.6556 C.3     1  UNL1        0.0717
     10 C         146.7291  141.9065  155.3597 C.2     1  UNL1       -0.0198
     11 C         147.1526  142.8793  156.4200 C.2     1  UNL1       -0.0042
     12 C         146.5131  142.8362  157.7761 C.2     1  UNL1        0.0006
     13 C         145.4500  141.8202  158.0719 C.2     1  UNL1        0.0111
     14 H         142.9962  139.7921  162.0995 H       1  UNL1        0.1246
     15 C         142.4382  138.9584  158.9447 C.ar    1  UNL1        0.2493
     16 N         141.3788  139.1921  157.9090 N.ar    1  UNL1       -0.1285
     17 N         141.3676  138.0120  156.9830 N.ar    1  UNL1       -0.1809
     18 C         140.4627  137.8275  155.8010 C.3     1  UNL1        0.1605
     19 C         142.4200  137.0491  157.4465 C.ar    1  UNL1        0.4389
     20 O         142.7524  135.7323  156.8094 O.2     1  UNL1       -0.2210
     21 O         143.0818  137.6339  158.6589 O.2     1  UNL1       -0.3896
     22 C         143.6868  142.3128  163.0792 C.ar    1  UNL1        0.1319
     23 N         142.9392  141.8164  164.2811 N.ar    1  UNL1       -0.2282
     24 C         143.2096  142.7584  165.4167 C.ar    1  UNL1        0.1171
     25 C         144.1242  143.8370  164.9166 C.ar    1  UNL1        0.0942
     26 N         144.4191  143.5616  163.4719 N.ar    1  UNL1       -0.3385
     27 H         144.9926  144.1050  162.8845 H       1  UNL1        0.1672
     28 C         142.6615  142.6422  166.8082 C.ar    1  UNL1        0.1006
     29 C         141.1795  142.5646  167.0265 C.ar    1  UNL1        0.0230
     30 C         140.6314  142.4484  168.4179 C.ar    1  UNL1        0.0328
     31 C         141.5653  142.4099  169.5910 C.ar    1  UNL1        0.1592
     32 F         141.0172  142.2937  170.9825 F       1  UNL1       -0.2025
     33 C         143.0473  142.4875  169.3727 C.ar    1  UNL1        0.1284
     34 N         143.5954  142.6037  167.9814 N.ar    1  UNL1       -0.2399
     35 N         139.5837  138.2580  161.5251 N.ar    1  UNL1       -0.2497
     36 C         140.2628  139.3403  160.7391 C.ar    1  UNL1        0.0944
     37 C         141.7359  139.0575  160.7379 C.ar    1  UNL1        0.0439
     38 C         141.9673  137.8005  161.5231 C.ar    1  UNL1        0.1194
     39 N         140.6371  137.3064  162.0096 N.ar    1  UNL1       -0.1679
     40 C         137.1678  139.1526  161.1893 C.3     1  UNL1        0.0284
     41 C         138.1100  138.1468  161.7815 C.3     1  UNL1        0.1276
@<TRIPOS>BOND
     1    40    41    1
     2    41    35    1
     3    35    36   ar
     4    36    37   ar
     5     1    37    1
     6     1    15    1
     7    15    16   ar
     8    16    17   ar
     9    17    18    1
    10    17    19   ar
    11    19    20    2
    12    19    21   ar
    13     1     2    1
    14     2     3    1
    15     3    22    1
    16    22    23   ar
    17    23    24   ar
    18    24    28    1
    19    28    29   ar
    20    29    30   ar
    21    30    31   ar
    22    31    32    1
    23    31    33   ar
    24    33    34   ar
    25    24    25   ar
    26    25    26   ar
    27     3     4    1
    28     4     5    1
    29     5     6    2
    30     6     7    1
    31     7     8    2
    32     8     9    1
    33     9    10    1
    34    10    11    2
    35    11    12    1
    36    12    13    2
    37    37    38   ar
    38    38    39   ar
    39    39    35   ar
    40     6     1    1
    41    13     8    1
    42    21    15   ar
    43    26    22   ar
    44    13     5    1
    45    34    28   ar
    46     2    14    1
    47    26    27    1
