@<TRIPOS>MOLECULE
*****
 29 32 0 0 0
SMALL
GASTEIGER

@<TRIPOS>ATOM
      1 O         140.4162  141.7494  163.4869 O.2     1  UNL1       -0.2505
      2 C         139.5294  141.3997  162.3287 C.2     1  UNL1        0.3269
      3 N         138.5867  140.2374  162.4301 N.am    1  UNL1       -0.2668
      4 N         139.5855  142.2124  161.0692 N.am    1  UNL1       -0.1624
      5 N         138.7638  141.9837  159.8352 N.2     1  UNL1       -0.1786
      6 C         139.1435  143.0264  158.8258 C.2     1  UNL1        0.0786
      7 C         140.1997  143.8994  159.4360 C.3     1  UNL1        0.0738
      8 C         140.4729  143.3963  160.8225 C.3     1  UNL1        0.1288
      9 H         138.0047  140.0079  161.6699 H       1  UNL1        0.1565
     10 C         138.5679  143.1708  157.4482 C.ar    1  UNL1        0.0152
     11 C         139.2198  144.0868  156.4552 C.ar    1  UNL1        0.0017
     12 C         138.6442  144.2311  155.0776 C.ar    1  UNL1        0.0067
     13 C         137.4168  143.4595  154.6929 C.ar    1  UNL1        0.0346
     14 BR        136.8413  143.6038  153.3153 Br      1  UNL1       -0.0490
     15 C         136.7650  142.5434  155.6859 C.ar    1  UNL1        0.0067
     16 C         137.3405  142.3991  157.0635 C.ar    1  UNL1        0.0017
     17 C         141.4601  143.9753  161.7920 C.ar    1  UNL1       -0.0018
     18 C         142.9045  143.5774  161.7193 C.ar    1  UNL1       -0.0003
     19 C         143.8917  144.1565  162.6889 C.ar    1  UNL1        0.0294
     20 C         143.4345  145.1336  163.7313 C.ar    1  UNL1        0.1401
     21 F         144.4217  145.7126  164.7008 F       1  UNL1       -0.2042
     22 C         141.9900  145.5314  163.8040 C.ar    1  UNL1        0.0294
     23 C         141.0029  144.9523  162.8344 C.ar    1  UNL1       -0.0003
     24 C         138.5307  139.4247  163.6897 C.ar    1  UNL1        0.0516
     25 C         138.9519  137.9852  163.6728 C.ar    1  UNL1        0.0147
     26 C         138.8959  137.1726  164.9323 C.ar    1  UNL1        0.0013
     27 C         138.4187  137.7995  166.2087 C.ar    1  UNL1        0.0001
     28 C         137.9975  139.2390  166.2256 C.ar    1  UNL1        0.0013
     29 C         138.0535  140.0516  164.9661 C.ar    1  UNL1        0.0147
@<TRIPOS>BOND
     1     1     2    2
     2     2     3   am
     3     3    24    1
     4    24    25   ar
     5    25    26   ar
     6    26    27   ar
     7    27    28   ar
     8    28    29   ar
     9     2     4   am
    10     4     5    1
    11     5     6    2
    12     6    10    1
    13    10    11   ar
    14    11    12   ar
    15    12    13   ar
    16    13    14    1
    17    13    15   ar
    18    15    16   ar
    19     6     7    1
    20     7     8    1
    21     8    17    1
    22    17    18   ar
    23    18    19   ar
    24    19    20   ar
    25    20    21    1
    26    20    22   ar
    27    22    23   ar
    28    29    24   ar
    29     8     4    1
    30    23    17   ar
    31    16    10   ar
    32     3     9    1
@<TRIPOS>MOLECULE
*****
 29 32 0 0 0
SMALL
GASTEIGER

@<TRIPOS>ATOM
      1 O         142.8798  142.1003  160.1915 O.2     1  UNL1       -0.2505
      2 C         144.2829  142.4532  159.7954 C.2     1  UNL1        0.3269
      3 N         145.2606  142.9187  160.8333 N.am    1  UNL1       -0.2668
      4 N         144.7081  142.3406  158.3614 N.am    1  UNL1       -0.1624
      5 N         146.0702  142.6567  157.8183 N.2     1  UNL1       -0.1786
      6 C         146.0499  142.4037  156.3399 C.2     1  UNL1        0.0786
      7 C         144.6753  141.9312  155.9693 C.3     1  UNL1        0.0738
      8 C         143.8461  141.8922  157.2187 C.3     1  UNL1        0.1288
      9 H         146.1815  143.1503  160.5734 H       1  UNL1        0.1565
     10 C         147.2019  142.5903  155.3976 C.ar    1  UNL1        0.0152
     11 C         148.4412  141.7598  155.5543 C.ar    1  UNL1        0.0017
     12 C         149.5932  141.9465  154.6119 C.ar    1  UNL1        0.0067
     13 C         149.5060  142.9636  153.5129 C.ar    1  UNL1        0.0346
     14 BR        150.6580  143.1502  152.5706 Br      1  UNL1       -0.0490
     15 C         148.2667  143.7940  153.3562 C.ar    1  UNL1        0.0067
     16 C         147.1147  143.6074  154.2985 C.ar    1  UNL1        0.0017
     17 C         142.4074  141.4777  157.3094 C.ar    1  UNL1       -0.0018
     18 C         142.0551  140.0416  157.5614 C.ar    1  UNL1       -0.0003
     19 C         140.6164  139.6271  157.6522 C.ar    1  UNL1        0.0294
     20 C         139.5299  140.6487  157.4910 C.ar    1  UNL1        0.1401
     21 F         138.0912  140.2341  157.5817 F       1  UNL1       -0.2042
     22 C         139.8822  142.0848  157.2390 C.ar    1  UNL1        0.0294
     23 C         141.3209  142.4993  157.1482 C.ar    1  UNL1       -0.0003
     24 C         144.8353  143.0313  162.2674 C.ar    1  UNL1        0.0516
     25 C         144.1498  144.2747  162.7510 C.ar    1  UNL1        0.0147
     26 C         143.7245  144.3872  164.1850 C.ar    1  UNL1        0.0013
     27 C         143.9849  143.2564  165.1355 C.ar    1  UNL1        0.0001
     28 C         144.6704  142.0130  164.6519 C.ar    1  UNL1        0.0013
     29 C         145.0957  141.9004  163.2179 C.ar    1  UNL1        0.0147
@<TRIPOS>BOND
     1     1     2    2
     2     2     3   am
     3     3    24    1
     4    24    25   ar
     5    25    26   ar
     6    26    27   ar
     7    27    28   ar
     8    28    29   ar
     9     2     4   am
    10     4     5    1
    11     5     6    2
    12     6    10    1
    13    10    11   ar
    14    11    12   ar
    15    12    13   ar
    16    13    14    1
    17    13    15   ar
    18    15    16   ar
    19     6     7    1
    20     7     8    1
    21     8    17    1
    22    17    18   ar
    23    18    19   ar
    24    19    20   ar
    25    20    21    1
    26    20    22   ar
    27    22    23   ar
    28    29    24   ar
    29     8     4    1
    30    23    17   ar
    31    16    10   ar
    32     3     9    1
@<TRIPOS>MOLECULE
*****
 29 32 0 0 0
SMALL
GASTEIGER

@<TRIPOS>ATOM
      1 O         141.2005  142.4835  161.7042 O.2     1  UNL1       -0.2505
      2 C         141.6140  143.6771  160.8953 C.2     1  UNL1        0.3269
      3 N         142.7537  144.5368  161.3556 N.am    1  UNL1       -0.2668
      4 N         140.8878  144.0109  159.6259 N.am    1  UNL1       -0.1624
      5 N         141.1865  145.1662  158.7170 N.2     1  UNL1       -0.1786
      6 C         140.2187  145.1174  157.5720 C.2     1  UNL1        0.0786
      7 C         139.3219  143.9319  157.7733 C.3     1  UNL1        0.0738
      8 C         139.7354  143.2481  159.0426 C.3     1  UNL1        0.1288
      9 H         143.0251  145.3201  160.8246 H       1  UNL1        0.1565
     10 C         140.1583  146.0843  156.4268 C.ar    1  UNL1        0.0152
     11 C         139.2357  147.2653  156.4902 C.ar    1  UNL1        0.0017
     12 C         139.1753  148.2322  155.3450 C.ar    1  UNL1        0.0067
     13 C         140.0375  148.0180  154.1364 C.ar    1  UNL1        0.0346
     14 BR        139.9771  148.9849  152.9912 Br      1  UNL1       -0.0490
     15 C         140.9601  146.8369  154.0730 C.ar    1  UNL1        0.0067
     16 C         141.0205  145.8701  155.2181 C.ar    1  UNL1        0.0017
     17 C         139.1070  142.0175  159.6263 C.ar    1  UNL1       -0.0018
     18 C         139.3713  140.6759  159.0099 C.ar    1  UNL1       -0.0003
     19 C         138.7429  139.4453  159.5936 C.ar    1  UNL1        0.0294
     20 C         137.8500  139.5564  160.7939 C.ar    1  UNL1        0.1401
     21 F         137.2216  138.3258  161.3776 F       1  UNL1       -0.2042
     22 C         137.5857  140.8980  161.4104 C.ar    1  UNL1        0.0294
     23 C         138.2142  142.1286  160.8266 C.ar    1  UNL1       -0.0003
     24 C         143.4799  144.2029  162.6250 C.ar    1  UNL1        0.0516
     25 C         144.3106  142.9567  162.7083 C.ar    1  UNL1        0.0147
     26 C         145.0368  142.6230  163.9776 C.ar    1  UNL1        0.0013
     27 C         144.9323  143.5354  165.1636 C.ar    1  UNL1        0.0001
     28 C         144.1016  144.7816  165.0803 C.ar    1  UNL1        0.0013
     29 C         143.3755  145.1153  163.8110 C.ar    1  UNL1        0.0147
@<TRIPOS>BOND
     1     1     2    2
     2     2     3   am
     3     3    24    1
     4    24    25   ar
     5    25    26   ar
     6    26    27   ar
     7    27    28   ar
     8    28    29   ar
     9     2     4   am
    10     4     5    1
    11     5     6    2
    12     6    10    1
    13    10    11   ar
    14    11    12   ar
    15    12    13   ar
    16    13    14    1
    17    13    15   ar
    18    15    16   ar
    19     6     7    1
    20     7     8    1
    21     8    17    1
    22    17    18   ar
    23    18    19   ar
    24    19    20   ar
    25    20    21    1
    26    20    22   ar
    27    22    23   ar
    28    29    24   ar
    29     8     4    1
    30    23    17   ar
    31    16    10   ar
    32     3     9    1
@<TRIPOS>MOLECULE
*****
 29 32 0 0 0
SMALL
GASTEIGER

@<TRIPOS>ATOM
      1 O         139.3436  139.9520  156.1951 O.2     1  UNL1       -0.2505
      2 C         138.4988  140.0682  157.4292 C.2     1  UNL1        0.3269
      3 N         137.0978  140.5953  157.3321 N.am    1  UNL1       -0.2668
      4 N         139.0551  139.6574  158.7603 N.am    1  UNL1       -0.1624
      5 N         138.3330  139.7165  160.0737 N.2     1  UNL1       -0.1786
      6 C         139.2627  139.2110  161.1369 C.2     1  UNL1        0.0786
      7 C         140.5593  138.8396  160.4805 C.3     1  UNL1        0.0738
      8 C         140.4310  139.1155  159.0117 C.3     1  UNL1        0.1288
      9 H         136.5434  140.6715  158.1420 H       1  UNL1        0.1565
     10 C         138.9506  139.0969  162.5996 C.ar    1  UNL1        0.0152
     11 C         139.1693  137.7962  163.3140 C.ar    1  UNL1        0.0017
     12 C         138.8572  137.6822  164.7767 C.ar    1  UNL1        0.0067
     13 C         138.3263  138.8688  165.5250 C.ar    1  UNL1        0.0346
     14 BR        138.0142  138.7548  166.9878 Br      1  UNL1       -0.0490
     15 C         138.1075  140.1695  164.8106 C.ar    1  UNL1        0.0067
     16 C         138.4196  140.2836  163.3479 C.ar    1  UNL1        0.0017
     17 C         141.4922  138.8893  157.9760 C.ar    1  UNL1       -0.0018
     18 C         141.5763  137.5719  157.2636 C.ar    1  UNL1       -0.0003
     19 C         142.6375  137.3458  156.2280 C.ar    1  UNL1        0.0294
     20 C         143.6147  138.4369  155.9047 C.ar    1  UNL1        0.1401
     21 F         144.6759  138.2107  154.8690 F       1  UNL1       -0.2042
     22 C         143.5307  139.7542  156.6171 C.ar    1  UNL1        0.0294
     23 C         142.4694  139.9804  157.6527 C.ar    1  UNL1       -0.0003
     24 C         136.5416  141.0061  156.0010 C.ar    1  UNL1        0.0516
     25 C         136.8312  142.3735  155.4568 C.ar    1  UNL1        0.0147
     26 C         136.2750  142.7843  154.1257 C.ar    1  UNL1        0.0013
     27 C         135.4291  141.8276  153.3388 C.ar    1  UNL1        0.0001
     28 C         135.1394  140.4602  153.8830 C.ar    1  UNL1        0.0013
     29 C         135.6957  140.0494  155.2140 C.ar    1  UNL1        0.0147
@<TRIPOS>BOND
     1     1     2    2
     2     2     3   am
     3     3    24    1
     4    24    25   ar
     5    25    26   ar
     6    26    27   ar
     7    27    28   ar
     8    28    29   ar
     9     2     4   am
    10     4     5    1
    11     5     6    2
    12     6    10    1
    13    10    11   ar
    14    11    12   ar
    15    12    13   ar
    16    13    14    1
    17    13    15   ar
    18    15    16   ar
    19     6     7    1
    20     7     8    1
    21     8    17    1
    22    17    18   ar
    23    18    19   ar
    24    19    20   ar
    25    20    21    1
    26    20    22   ar
    27    22    23   ar
    28    29    24   ar
    29     8     4    1
    30    23    17   ar
    31    16    10   ar
    32     3     9    1
@<TRIPOS>MOLECULE
*****
 29 32 0 0 0
SMALL
GASTEIGER

@<TRIPOS>ATOM
      1 O         140.0567  142.9070  160.0015 O.2     1  UNL1       -0.2505
      2 C         139.9692  144.3455  159.5855 C.2     1  UNL1        0.3269
      3 N         139.8340  145.4196  160.6237 N.am    1  UNL1       -0.2668
      4 N         140.0171  144.7099  158.1311 N.am    1  UNL1       -0.1624
      5 N         139.9411  146.0977  157.5670 N.2     1  UNL1       -0.1786
      6 C         140.0264  145.9960  156.0728 C.2     1  UNL1        0.0786
      7 C         140.1550  144.5453  155.7136 C.3     1  UNL1        0.0738
      8 C         140.1492  143.7505  156.9857 C.3     1  UNL1        0.1288
      9 H         139.7765  146.3637  160.3506 H       1  UNL1        0.1565
     10 C         139.9895  147.1434  155.1075 C.ar    1  UNL1        0.0152
     11 C         139.2372  148.3933  155.4565 C.ar    1  UNL1        0.0017
     12 C         139.2003  149.5408  154.4911 C.ar    1  UNL1        0.0067
     13 C         139.9157  149.4383  153.1767 C.ar    1  UNL1        0.0346
     14 BR        139.8788  150.5858  152.2113 Br      1  UNL1       -0.0490
     15 C         140.6679  148.1884  152.8277 C.ar    1  UNL1        0.0067
     16 C         140.7048  147.0410  153.7930 C.ar    1  UNL1        0.0017
     17 C         140.2567  142.2582  157.0935 C.ar    1  UNL1       -0.0018
     18 C         139.0169  141.4140  157.0806 C.ar    1  UNL1       -0.0003
     19 C         139.1246  139.9218  157.1884 C.ar    1  UNL1        0.0294
     20 C         140.4720  139.2737  157.3091 C.ar    1  UNL1        0.1401
     21 F         140.5795  137.7815  157.4169 F       1  UNL1       -0.2042
     22 C         141.7118  140.1179  157.3220 C.ar    1  UNL1        0.0294
     23 C         141.6042  141.6101  157.2142 C.ar    1  UNL1       -0.0003
     24 C         139.7861  145.0553  162.0780 C.ar    1  UNL1        0.0516
     25 C         138.4694  144.7671  162.7361 C.ar    1  UNL1        0.0147
     26 C         138.4216  144.4028  164.1904 C.ar    1  UNL1        0.0013
     27 C         139.6906  144.3266  164.9865 C.ar    1  UNL1        0.0001
     28 C         141.0073  144.6147  164.3285 C.ar    1  UNL1        0.0013
     29 C         141.0551  144.9790  162.8742 C.ar    1  UNL1        0.0147
@<TRIPOS>BOND
     1     1     2    2
     2     2     3   am
     3     3    24    1
     4    24    25   ar
     5    25    26   ar
     6    26    27   ar
     7    27    28   ar
     8    28    29   ar
     9     2     4   am
    10     4     5    1
    11     5     6    2
    12     6    10    1
    13    10    11   ar
    14    11    12   ar
    15    12    13   ar
    16    13    14    1
    17    13    15   ar
    18    15    16   ar
    19     6     7    1
    20     7     8    1
    21     8    17    1
    22    17    18   ar
    23    18    19   ar
    24    19    20   ar
    25    20    21    1
    26    20    22   ar
    27    22    23   ar
    28    29    24   ar
    29     8     4    1
    30    23    17   ar
    31    16    10   ar
    32     3     9    1
@<TRIPOS>MOLECULE
*****
 29 32 0 0 0
SMALL
GASTEIGER

@<TRIPOS>ATOM
      1 O         144.8985  142.4876  157.7237 O.2     1  UNL1       -0.2505
      2 C         144.2455  141.1544  157.9380 C.2     1  UNL1        0.3269
      3 N         143.5838  140.8452  159.2482 N.am    1  UNL1       -0.2668
      4 N         144.2541  140.1302  156.8421 N.am    1  UNL1       -0.1624
      5 N         143.6451  138.7611  156.9101 N.2     1  UNL1       -0.1786
      6 C         143.8878  138.0800  155.5958 C.2     1  UNL1        0.0786
      7 C         144.6469  139.0283  154.7156 C.3     1  UNL1        0.0738
      8 C         144.8732  140.2953  155.4858 C.3     1  UNL1        0.1288
      9 H         143.1552  139.9702  159.3888 H       1  UNL1        0.1565
     10 C         143.4486  136.6941  155.2265 C.ar    1  UNL1        0.0152
     11 C         142.5738  136.4791  154.0271 C.ar    1  UNL1        0.0017
     12 C         142.1346  135.0932  153.6579 C.ar    1  UNL1        0.0067
     13 C         142.5703  133.9223  154.4880 C.ar    1  UNL1        0.0346
     14 BR        142.1311  132.5364  154.1188 Br      1  UNL1       -0.0490
     15 C         143.4451  134.1373  155.6874 C.ar    1  UNL1        0.0067
     16 C         143.8843  135.5232  156.0566 C.ar    1  UNL1        0.0017
     17 C         145.5925  141.5136  154.9875 C.ar    1  UNL1       -0.0018
     18 C         147.0771  141.6334  155.1652 C.ar    1  UNL1       -0.0003
     19 C         147.7962  142.8517  154.6668 C.ar    1  UNL1        0.0294
     20 C         147.0308  143.9504  153.9906 C.ar    1  UNL1        0.1401
     21 F         147.7500  145.1687  153.4922 F       1  UNL1       -0.2042
     22 C         145.5462  143.8306  153.8129 C.ar    1  UNL1        0.0294
     23 C         144.8271  142.6123  154.3113 C.ar    1  UNL1       -0.0003
     24 C         143.5752  141.8694  160.3442 C.ar    1  UNL1        0.0516
     25 C         144.6994  141.9160  161.3360 C.ar    1  UNL1        0.0147
     26 C         144.6907  142.9401  162.4319 C.ar    1  UNL1        0.0013
     27 C         143.5578  143.9177  162.5359 C.ar    1  UNL1        0.0001
     28 C         142.4336  143.8712  161.5440 C.ar    1  UNL1        0.0013
     29 C         142.4423  142.8470  160.4482 C.ar    1  UNL1        0.0147
@<TRIPOS>BOND
     1     1     2    2
     2     2     3   am
     3     3    24    1
     4    24    25   ar
     5    25    26   ar
     6    26    27   ar
     7    27    28   ar
     8    28    29   ar
     9     2     4   am
    10     4     5    1
    11     5     6    2
    12     6    10    1
    13    10    11   ar
    14    11    12   ar
    15    12    13   ar
    16    13    14    1
    17    13    15   ar
    18    15    16   ar
    19     6     7    1
    20     7     8    1
    21     8    17    1
    22    17    18   ar
    23    18    19   ar
    24    19    20   ar
    25    20    21    1
    26    20    22   ar
    27    22    23   ar
    28    29    24   ar
    29     8     4    1
    30    23    17   ar
    31    16    10   ar
    32     3     9    1
@<TRIPOS>MOLECULE
*****
 29 32 0 0 0
SMALL
GASTEIGER

@<TRIPOS>ATOM
      1 O         138.5867  143.7425  155.7416 O.2     1  UNL1       -0.2505
      2 C         139.0243  143.0605  157.0039 C.2     1  UNL1        0.3269
      3 N         138.5283  141.6812  157.3219 N.am    1  UNL1       -0.2668
      4 N         139.9581  143.7581  157.9483 N.am    1  UNL1       -0.1624
      5 N         140.4795  143.2051  159.2415 N.2     1  UNL1       -0.1786
      6 C         141.3780  144.2362  159.8577 C.2     1  UNL1        0.0786
      7 C         141.4118  145.4264  158.9452 C.3     1  UNL1        0.0738
      8 C         140.5342  145.1308  157.7652 C.3     1  UNL1        0.1288
      9 H         138.8155  141.2336  158.1504 H       1  UNL1        0.1565
     10 C         142.1135  144.1010  161.1579 C.ar    1  UNL1        0.0152
     11 C         143.3719  143.2874  161.2267 C.ar    1  UNL1        0.0017
     12 C         144.1074  143.1522  162.5269 C.ar    1  UNL1        0.0067
     13 C         143.5846  143.8304  163.7584 C.ar    1  UNL1        0.0346
     14 BR        144.3201  143.6951  165.0587 Br      1  UNL1       -0.0490
     15 C         142.3262  144.6439  163.6897 C.ar    1  UNL1        0.0067
     16 C         141.5907  144.7792  162.3894 C.ar    1  UNL1        0.0017
     17 C         140.2778  146.0471  156.6056 C.ar    1  UNL1       -0.0018
     18 C         141.0633  145.8900  155.3375 C.ar    1  UNL1       -0.0003
     19 C         140.8068  146.8063  154.1780 C.ar    1  UNL1        0.0294
     20 C         139.7648  147.8798  154.2865 C.ar    1  UNL1        0.1401
     21 F         139.5083  148.7961  153.1269 F       1  UNL1       -0.2042
     22 C         138.9792  148.0370  155.5546 C.ar    1  UNL1        0.0294
     23 C         139.2357  147.1206  156.7141 C.ar    1  UNL1       -0.0003
     24 C         137.5945  140.9837  156.3776 C.ar    1  UNL1        0.0516
     25 C         136.1218  141.2624  156.4365 C.ar    1  UNL1        0.0147
     26 C         135.1882  140.5649  155.4922 C.ar    1  UNL1        0.0013
     27 C         135.7272  139.5887  154.4890 C.ar    1  UNL1        0.0001
     28 C         137.1999  139.3100  154.4300 C.ar    1  UNL1        0.0013
     29 C         138.1335  140.0075  155.3743 C.ar    1  UNL1        0.0147
@<TRIPOS>BOND
     1     1     2    2
     2     2     3   am
     3     3    24    1
     4    24    25   ar
     5    25    26   ar
     6    26    27   ar
     7    27    28   ar
     8    28    29   ar
     9     2     4   am
    10     4     5    1
    11     5     6    2
    12     6    10    1
    13    10    11   ar
    14    11    12   ar
    15    12    13   ar
    16    13    14    1
    17    13    15   ar
    18    15    16   ar
    19     6     7    1
    20     7     8    1
    21     8    17    1
    22    17    18   ar
    23    18    19   ar
    24    19    20   ar
    25    20    21    1
    26    20    22   ar
    27    22    23   ar
    28    29    24   ar
    29     8     4    1
    30    23    17   ar
    31    16    10   ar
    32     3     9    1
@<TRIPOS>MOLECULE
*****
 29 32 0 0 0
SMALL
GASTEIGER

@<TRIPOS>ATOM
      1 O         142.5394  142.1511  160.4544 O.2     1  UNL1       -0.2505
      2 C         143.9161  142.3306  159.8866 C.2     1  UNL1        0.3269
      3 N         145.0363  142.7968  160.7685 N.am    1  UNL1       -0.2668
      4 N         144.1726  142.0439  158.4367 N.am    1  UNL1       -0.1624
      5 N         145.4897  142.1770  157.7313 N.2     1  UNL1       -0.1786
      6 C         145.2882  141.7891  156.2963 C.2     1  UNL1        0.0786
      7 C         143.8466  141.4163  156.1150 C.3     1  UNL1        0.0738
      8 C         143.1572  141.5738  157.4378 C.3     1  UNL1        0.1288
      9 H         145.9399  142.9146  160.3958 H       1  UNL1        0.1565
     10 C         146.3431  141.7762  155.2300 C.ar    1  UNL1        0.0152
     11 C         145.9880  141.3767  153.8285 C.ar    1  UNL1        0.0017
     12 C         147.0429  141.3638  152.7622 C.ar    1  UNL1        0.0067
     13 C         148.4528  141.7505  153.0974 C.ar    1  UNL1        0.0346
     14 BR        149.5077  141.7377  152.0311 Br      1  UNL1       -0.0490
     15 C         148.8080  142.1501  154.4989 C.ar    1  UNL1        0.0067
     16 C         147.7531  142.1629  155.5652 C.ar    1  UNL1        0.0017
     17 C         141.7069  141.3079  157.7134 C.ar    1  UNL1       -0.0018
     18 C         141.2580  139.9312  158.1049 C.ar    1  UNL1       -0.0003
     19 C         139.8077  139.6654  158.3804 C.ar    1  UNL1        0.0294
     20 C         138.8062  140.7762  158.2646 C.ar    1  UNL1        0.1401
     21 F         137.3560  140.5103  158.5402 F       1  UNL1       -0.2042
     22 C         139.2552  142.1528  157.8731 C.ar    1  UNL1        0.0294
     23 C         140.7055  142.4186  157.5975 C.ar    1  UNL1       -0.0003
     24 C         144.7798  143.0835  162.2184 C.ar    1  UNL1        0.0516
     25 C         144.1088  144.3627  162.6227 C.ar    1  UNL1        0.0147
     26 C         143.8523  144.6493  164.0725 C.ar    1  UNL1        0.0013
     27 C         144.2668  143.6569  165.1180 C.ar    1  UNL1        0.0001
     28 C         144.9378  142.3777  164.7137 C.ar    1  UNL1        0.0013
     29 C         145.1943  142.0910  163.2639 C.ar    1  UNL1        0.0147
@<TRIPOS>BOND
     1     1     2    2
     2     2     3   am
     3     3    24    1
     4    24    25   ar
     5    25    26   ar
     6    26    27   ar
     7    27    28   ar
     8    28    29   ar
     9     2     4   am
    10     4     5    1
    11     5     6    2
    12     6    10    1
    13    10    11   ar
    14    11    12   ar
    15    12    13   ar
    16    13    14    1
    17    13    15   ar
    18    15    16   ar
    19     6     7    1
    20     7     8    1
    21     8    17    1
    22    17    18   ar
    23    18    19   ar
    24    19    20   ar
    25    20    21    1
    26    20    22   ar
    27    22    23   ar
    28    29    24   ar
    29     8     4    1
    30    23    17   ar
    31    16    10   ar
    32     3     9    1
@<TRIPOS>MOLECULE
*****
 29 32 0 0 0
SMALL
GASTEIGER

@<TRIPOS>ATOM
      1 O         141.9369  140.4093  159.9735 O.2     1  UNL1       -0.2505
      2 C         142.7231  139.1547  159.7330 C.2     1  UNL1        0.3269
      3 N         143.9012  138.8295  160.6026 N.am    1  UNL1       -0.2668
      4 N         142.3311  138.2252  158.6228 N.am    1  UNL1       -0.1624
      5 N         143.0183  136.9410  158.2642 N.2     1  UNL1       -0.1786
      6 C         142.2950  136.3388  157.0961 C.2     1  UNL1        0.0786
      7 C         141.1609  137.2510  156.7328 C.3     1  UNL1        0.0738
      8 C         141.1832  138.4168  157.6764 C.3     1  UNL1        0.1288
      9 H         144.4172  138.0061  160.4447 H       1  UNL1        0.1565
     10 C         142.6445  135.0508  156.4114 C.ar    1  UNL1        0.0152
     11 C         143.7560  134.1958  156.9441 C.ar    1  UNL1        0.0017
     12 C         144.1055  132.9078  156.2595 C.ar    1  UNL1        0.0067
     13 C         143.3435  132.4746  155.0422 C.ar    1  UNL1        0.0346
     14 BR        143.6930  131.1866  154.3576 Br      1  UNL1       -0.0490
     15 C         142.2320  133.3296  154.5095 C.ar    1  UNL1        0.0067
     16 C         141.8825  134.6177  155.1942 C.ar    1  UNL1        0.0017
     17 C         140.2258  139.5714  157.6741 C.ar    1  UNL1       -0.0018
     18 C         139.0130  139.5420  158.5562 C.ar    1  UNL1       -0.0003
     19 C         138.0556  140.6967  158.5538 C.ar    1  UNL1        0.0294
     20 C         138.3110  141.8810  157.6692 C.ar    1  UNL1        0.1401
     21 F         137.3536  143.0356  157.6669 F       1  UNL1       -0.2042
     22 C         139.5238  141.9104  156.7871 C.ar    1  UNL1        0.0294
     23 C         140.4812  140.7557  156.7895 C.ar    1  UNL1       -0.0003
     24 C         144.2932  139.7590  161.7128 C.ar    1  UNL1        0.0516
     25 C         144.6494  141.1838  161.4076 C.ar    1  UNL1        0.0147
     26 C         145.0414  142.1132  162.5177 C.ar    1  UNL1        0.0013
     27 C         145.0771  141.6178  163.9332 C.ar    1  UNL1        0.0001
     28 C         144.7209  140.1931  164.2384 C.ar    1  UNL1        0.0013
     29 C         144.3289  139.2637  163.1282 C.ar    1  UNL1        0.0147
@<TRIPOS>BOND
     1     1     2    2
     2     2     3   am
     3     3    24    1
     4    24    25   ar
     5    25    26   ar
     6    26    27   ar
     7    27    28   ar
     8    28    29   ar
     9     2     4   am
    10     4     5    1
    11     5     6    2
    12     6    10    1
    13    10    11   ar
    14    11    12   ar
    15    12    13   ar
    16    13    14    1
    17    13    15   ar
    18    15    16   ar
    19     6     7    1
    20     7     8    1
    21     8    17    1
    22    17    18   ar
    23    18    19   ar
    24    19    20   ar
    25    20    21    1
    26    20    22   ar
    27    22    23   ar
    28    29    24   ar
    29     8     4    1
    30    23    17   ar
    31    16    10   ar
    32     3     9    1
