@<TRIPOS>MOLECULE
*****
 40 43 0 0 0
SMALL
GASTEIGER

@<TRIPOS>ATOM
      1 C         140.1515  142.4354  158.4786 C.ar    1  UNL1        0.0008
      2 C         141.3220  142.9058  157.6670 C.ar    1  UNL1       -0.0024
      3 C         141.9106  144.2628  157.9162 C.ar    1  UNL1        0.0028
      4 C         141.3288  145.1494  158.9771 C.ar    1  UNL1        0.0369
      5 C         140.1583  144.6790  159.7888 C.ar    1  UNL1        0.1389
      6 C         139.5697  143.3220  159.5395 C.ar    1  UNL1        0.0343
      7 C         139.5629  141.0784  158.2294 C.3     1  UNL1        0.1239
      8 C         139.5995  139.3933  160.2066 C.2     1  UNL1        0.4100
      9 O         138.4574  140.1228  160.8495 O.2     1  UNL1       -0.2258
     10 N         140.1523  139.8712  158.8965 N.am    1  UNL1       -0.2363
     11 O         140.1889  138.1861  160.8737 O.3     1  UNL1       -0.4101
     12 C         142.9364  138.7323  166.1796 C.3     1  UNL1        0.0310
     13 C         142.2496  138.5958  164.8531 C.ar    1  UNL1       -0.0217
     14 C         142.4653  139.6286  163.7870 C.ar    1  UNL1       -0.0011
     15 C         141.7784  139.4921  162.4605 C.ar    1  UNL1        0.0373
     16 C         140.8758  138.3226  162.2002 C.ar    1  UNL1        0.1500
     17 C         140.6601  137.2898  163.2663 C.ar    1  UNL1        0.0373
     18 C         141.3470  137.4264  164.5928 C.ar    1  UNL1       -0.0011
     19 C         141.2945  139.1417  158.2537 C.3     1  UNL1        0.1388
     20 C         142.6681  139.2241  158.8506 C.2     1  UNL1        0.0706
     21 O         143.4204  140.5215  158.8250 O.co2   1  UNL1       -0.5474
     22 O         143.2893  138.0090  159.4733 O.co2   1  UNL1       -0.5474
     23 O         139.5766  145.5656  160.8496 O.3     1  UNL1       -0.4689
     24 C         140.3313  145.8055  162.1235 C.3     1  UNL1        0.2537
     25 C         140.5660  144.6746  163.0806 C.ar    1  UNL1        0.1359
     26 N         139.5899  143.5858  163.4153 N.ar    1  UNL1       -0.2093
     27 C         140.2385  142.6722  164.4126 C.ar    1  UNL1        0.2290
     28 O         141.6155  143.1963  164.6943 O.2     1  UNL1       -0.4391
     29 C         141.8179  144.4339  163.8710 C.ar    1  UNL1        0.1421
     30 C         143.0549  145.2818  163.8432 C.3     1  UNL1        0.0740
     31 C         139.6190  141.4493  165.0213 C.ar    1  UNL1        0.0535
     32 C         139.9437  141.0689  166.4354 C.ar    1  UNL1        0.0046
     33 C         139.3242  139.8459  167.0443 C.ar    1  UNL1        0.0040
     34 C         138.3799  139.0034  166.2388 C.ar    1  UNL1        0.0714
     35 C         138.0553  139.3839  164.8246 C.ar    1  UNL1        0.0040
     36 C         138.6748  140.6069  164.2159 C.ar    1  UNL1        0.0046
     37 C         137.7604  137.7804  166.8475 C.3     1  UNL1        0.4186
     38 F         137.1409  136.5575  167.4563 F       1  UNL1       -0.1659
     39 F         138.3429  136.9393  165.7506 F       1  UNL1       -0.1659
     40 F         137.1780  138.6215  167.9444 F       1  UNL1       -0.1659
@<TRIPOS>UNITY_ATOM_ATTR
21 1
charge -1
@<TRIPOS>BOND
     1    12    13    1
     2    13    14   ar
     3    14    15   ar
     4    15    16   ar
     5    16    11    1
     6    11     8    1
     7     8     9    2
     8     8    10   am
     9    10    19    1
    10    19    20    1
    11    20    21   ar
    12    20    22   ar
    13    10     7    1
    14     7     1    1
    15     1     2   ar
    16     2     3   ar
    17     3     4   ar
    18     4     5   ar
    19     5    23    1
    20    23    24    1
    21    24    25    1
    22    25    26   ar
    23    26    27   ar
    24    27    31    1
    25    31    32   ar
    26    32    33   ar
    27    33    34   ar
    28    34    37    1
    29    37    38    1
    30    37    39    1
    31    37    40    1
    32    34    35   ar
    33    35    36   ar
    34    27    28   ar
    35    28    29   ar
    36    29    30    1
    37     5     6   ar
    38    16    17   ar
    39    17    18   ar
    40    18    13   ar
    41     6     1   ar
    42    29    25   ar
    43    36    31   ar
@<TRIPOS>MOLECULE
*****
 40 43 0 0 0
SMALL
GASTEIGER

@<TRIPOS>ATOM
      1 C         141.0109  145.0274  160.4946 C.ar    1  UNL1        0.0008
      2 C         140.7229  145.3025  159.0485 C.ar    1  UNL1       -0.0024
      3 C         141.5078  144.5999  157.9806 C.ar    1  UNL1        0.0028
      4 C         142.5807  143.6223  158.3588 C.ar    1  UNL1        0.0369
      5 C         142.8687  143.3472  159.8050 C.ar    1  UNL1        0.1389
      6 C         142.0839  144.0498  160.8729 C.ar    1  UNL1        0.0343
      7 C         140.2260  145.7300  161.5625 C.3     1  UNL1        0.1239
      8 C         140.5711  144.7883  163.9593 C.2     1  UNL1        0.4100
      9 O         141.9471  145.3843  163.9953 O.2     1  UNL1       -0.2258
     10 N         139.7105  144.9612  162.7428 N.am    1  UNL1       -0.2363
     11 O         140.0555  144.0196  165.1396 O.3     1  UNL1       -0.4101
     12 C         142.7889  138.9597  166.8501 C.3     1  UNL1        0.0310
     13 C         142.1056  140.2247  166.4225 C.ar    1  UNL1       -0.0217
     14 C         142.5696  140.9493  165.1938 C.ar    1  UNL1       -0.0011
     15 C         141.8863  142.2143  164.7662 C.ar    1  UNL1        0.0373
     16 C         140.7389  142.7546  165.5672 C.ar    1  UNL1        0.1500
     17 C         140.2749  142.0300  166.7959 C.ar    1  UNL1        0.0373
     18 C         140.9583  140.7650  167.2235 C.ar    1  UNL1       -0.0011
     19 C         138.3344  144.3653  162.7068 C.3     1  UNL1        0.1388
     20 C         138.1352  142.9682  162.1985 C.2     1  UNL1        0.0706
     21 O         137.0245  142.1220  162.7465 O.co2   1  UNL1       -0.5474
     22 O         139.0466  142.4173  161.1423 O.co2   1  UNL1       -0.5474
     23 O         143.9416  142.3696  160.1833 O.3     1  UNL1       -0.4689
     24 C         143.8574  140.9462  159.7176 C.3     1  UNL1        0.2537
     25 C         142.8542  140.0147  160.3306 C.ar    1  UNL1        0.1359
     26 N         142.1862  140.1905  161.6622 N.ar    1  UNL1       -0.2093
     27 C         141.2620  139.0282  161.8743 C.ar    1  UNL1        0.2290
     28 O         141.3587  138.1340  160.6738 O.2     1  UNL1       -0.4391
     29 C         142.3428  138.7437  159.7197 C.ar    1  UNL1        0.1421
     30 C         142.7448  138.1812  158.3886 C.3     1  UNL1        0.0740
     31 C         140.3936  138.8002  163.0758 C.ar    1  UNL1        0.0535
     32 C         140.5576  137.5538  163.8940 C.ar    1  UNL1        0.0046
     33 C         139.6891  137.3256  165.0956 C.ar    1  UNL1        0.0040
     34 C         138.6567  138.3441  165.4789 C.ar    1  UNL1        0.0714
     35 C         138.4927  139.5905  164.6607 C.ar    1  UNL1        0.0040
     36 C         139.3612  139.8186  163.4591 C.ar    1  UNL1        0.0046
     37 C         137.7882  138.1160  166.6805 C.3     1  UNL1        0.4186
     38 F         136.9197  137.8879  167.8821 F       1  UNL1       -0.1659
     39 F         137.8196  139.5851  166.9820 F       1  UNL1       -0.1659
     40 F         137.7569  136.6470  166.3790 F       1  UNL1       -0.1659
@<TRIPOS>UNITY_ATOM_ATTR
21 1
charge -1
@<TRIPOS>BOND
     1    12    13    1
     2    13    14   ar
     3    14    15   ar
     4    15    16   ar
     5    16    11    1
     6    11     8    1
     7     8     9    2
     8     8    10   am
     9    10    19    1
    10    19    20    1
    11    20    21   ar
    12    20    22   ar
    13    10     7    1
    14     7     1    1
    15     1     2   ar
    16     2     3   ar
    17     3     4   ar
    18     4     5   ar
    19     5    23    1
    20    23    24    1
    21    24    25    1
    22    25    26   ar
    23    26    27   ar
    24    27    31    1
    25    31    32   ar
    26    32    33   ar
    27    33    34   ar
    28    34    37    1
    29    37    38    1
    30    37    39    1
    31    37    40    1
    32    34    35   ar
    33    35    36   ar
    34    27    28   ar
    35    28    29   ar
    36    29    30    1
    37     5     6   ar
    38    16    17   ar
    39    17    18   ar
    40    18    13   ar
    41     6     1   ar
    42    29    25   ar
    43    36    31   ar
@<TRIPOS>MOLECULE
*****
 40 43 0 0 0
SMALL
GASTEIGER

@<TRIPOS>ATOM
      1 C         141.1236  144.8556  161.0297 C.ar    1  UNL1        0.0008
      2 C         140.6902  145.0794  159.6113 C.ar    1  UNL1       -0.0024
      3 C         141.4369  144.4254  158.4867 C.ar    1  UNL1        0.0028
      4 C         142.6171  143.5475  158.7806 C.ar    1  UNL1        0.0369
      5 C         143.0507  143.3237  160.1991 C.ar    1  UNL1        0.1389
      6 C         142.3039  143.9777  161.3236 C.ar    1  UNL1        0.0343
      7 C         140.3769  145.5096  162.1543 C.3     1  UNL1        0.1239
      8 C         140.4049  144.1256  164.3529 C.2     1  UNL1        0.4100
      9 O         141.8649  144.4249  164.5226 O.2     1  UNL1       -0.2258
     10 N         139.6609  144.6680  163.1687 N.am    1  UNL1       -0.2363
     11 O         139.6889  143.2841  165.3673 O.3     1  UNL1       -0.4101
     12 C         139.7323  137.3047  164.8730 C.3     1  UNL1        0.0310
     13 C         139.7215  138.7995  164.9965 C.ar    1  UNL1       -0.0217
     14 C         140.0352  139.6530  163.8036 C.ar    1  UNL1       -0.0011
     15 C         140.0244  141.1478  163.9272 C.ar    1  UNL1        0.0373
     16 C         139.6998  141.7892  165.2437 C.ar    1  UNL1        0.1500
     17 C         139.3860  140.9358  166.4367 C.ar    1  UNL1        0.0373
     18 C         139.3969  139.4408  166.3131 C.ar    1  UNL1       -0.0011
     19 C         138.2009  144.3688  162.9989 C.3     1  UNL1        0.1388
     20 C         137.7683  143.1574  162.2274 C.2     1  UNL1        0.0706
     21 O         137.0049  142.0639  162.9142 O.co2   1  UNL1       -0.5474
     22 O         138.0992  143.0393  160.7691 O.co2   1  UNL1       -0.5474
     23 O         144.2309  142.4458  160.4930 O.3     1  UNL1       -0.4689
     24 C         144.0509  140.9613  160.6096 C.3     1  UNL1        0.2537
     25 C         143.8304  140.3359  161.9551 C.ar    1  UNL1        0.1359
     26 N         143.5834  141.0710  163.2392 N.ar    1  UNL1       -0.2093
     27 C         143.4186  140.0551  164.3305 C.ar    1  UNL1        0.2290
     28 O         143.5637  138.6922  163.7209 O.2     1  UNL1       -0.4391
     29 C         143.8182  138.8658  162.2528 C.ar    1  UNL1        0.1421
     30 C         144.0243  137.7629  161.2573 C.3     1  UNL1        0.0740
     31 C         143.1550  140.3503  165.7773 C.ar    1  UNL1        0.0535
     32 C         143.1381  141.7697  166.2622 C.ar    1  UNL1        0.0046
     33 C         142.8744  142.0650  167.7090 C.ar    1  UNL1        0.0040
     34 C         142.6277  140.9407  168.6710 C.ar    1  UNL1        0.0714
     35 C         142.6446  139.5214  168.1861 C.ar    1  UNL1        0.0040
     36 C         142.9083  139.2262  166.7392 C.ar    1  UNL1        0.0046
     37 C         142.3641  141.2359  170.1178 C.3     1  UNL1        0.4186
     38 F         142.1004  141.5311  171.5647 F       1  UNL1       -0.1659
     39 F         141.7735  139.8678  170.2894 F       1  UNL1       -0.1659
     40 F         142.9546  142.6040  169.9463 F       1  UNL1       -0.1659
@<TRIPOS>UNITY_ATOM_ATTR
21 1
charge -1
@<TRIPOS>BOND
     1    12    13    1
     2    13    14   ar
     3    14    15   ar
     4    15    16   ar
     5    16    11    1
     6    11     8    1
     7     8     9    2
     8     8    10   am
     9    10    19    1
    10    19    20    1
    11    20    21   ar
    12    20    22   ar
    13    10     7    1
    14     7     1    1
    15     1     2   ar
    16     2     3   ar
    17     3     4   ar
    18     4     5   ar
    19     5    23    1
    20    23    24    1
    21    24    25    1
    22    25    26   ar
    23    26    27   ar
    24    27    31    1
    25    31    32   ar
    26    32    33   ar
    27    33    34   ar
    28    34    37    1
    29    37    38    1
    30    37    39    1
    31    37    40    1
    32    34    35   ar
    33    35    36   ar
    34    27    28   ar
    35    28    29   ar
    36    29    30    1
    37     5     6   ar
    38    16    17   ar
    39    17    18   ar
    40    18    13   ar
    41     6     1   ar
    42    29    25   ar
    43    36    31   ar
@<TRIPOS>MOLECULE
*****
 40 43 0 0 0
SMALL
GASTEIGER

@<TRIPOS>ATOM
      1 C         143.4870  143.5219  161.7617 C.ar    1  UNL1        0.0008
      2 C         144.2314  144.1649  162.8940 C.ar    1  UNL1       -0.0024
      3 C         143.5567  145.2020  163.7421 C.ar    1  UNL1        0.0028
      4 C         142.1376  145.5961  163.4578 C.ar    1  UNL1        0.0369
      5 C         141.3931  144.9530  162.3255 C.ar    1  UNL1        0.1389
      6 C         142.0678  143.9159  161.4774 C.ar    1  UNL1        0.0343
      7 C         144.1616  142.4847  160.9136 C.3     1  UNL1        0.1239
      8 C         144.3015  140.2030  162.1482 C.2     1  UNL1        0.4100
      9 O         145.2432  140.8028  163.1500 O.2     1  UNL1       -0.2258
     10 N         143.7607  141.0440  161.0300 N.am    1  UNL1       -0.2363
     11 O         143.9007  138.7623  162.2647 O.3     1  UNL1       -0.4101
     12 C         138.9066  137.2688  165.2359 C.3     1  UNL1        0.0310
     13 C         140.1551  137.6422  164.4931 C.ar    1  UNL1       -0.0217
     14 C         141.3410  138.1764  165.2403 C.ar    1  UNL1       -0.0011
     15 C         142.5895  138.5497  164.4975 C.ar    1  UNL1        0.0373
     16 C         142.6522  138.3889  163.0074 C.ar    1  UNL1        0.1500
     17 C         141.4663  137.8547  162.2602 C.ar    1  UNL1        0.0373
     18 C         140.2177  137.4813  163.0031 C.ar    1  UNL1       -0.0011
     19 C         142.8191  140.4442  160.0283 C.3     1  UNL1        0.1388
     20 C         143.3325  139.4815  158.9990 C.2     1  UNL1        0.0706
     21 O         142.8270  138.0694  158.9746 O.co2   1  UNL1       -0.5474
     22 O         144.3515  139.9307  157.9941 O.co2   1  UNL1       -0.5474
     23 O         139.9740  145.3470  162.0412 O.3     1  UNL1       -0.4689
     24 C         138.8472  144.6543  162.7486 C.3     1  UNL1        0.2537
     25 C         139.1191  143.4334  163.5765 C.ar    1  UNL1        0.1359
     26 N         139.9695  143.3766  164.8110 N.ar    1  UNL1       -0.2093
     27 C         139.9644  141.9631  165.3128 C.ar    1  UNL1        0.2290
     28 O         139.1109  141.1461  164.3885 O.2     1  UNL1       -0.4391
     29 C         138.5885  142.0549  163.3154 C.ar    1  UNL1        0.1421
     30 C         137.6928  141.6552  162.1806 C.3     1  UNL1        0.0740
     31 C         140.6860  141.4556  166.5258 C.ar    1  UNL1        0.0535
     32 C         139.9780  140.5619  167.5005 C.ar    1  UNL1        0.0046
     33 C         140.6996  140.0543  168.7137 C.ar    1  UNL1        0.0040
     34 C         142.1294  140.4405  168.9520 C.ar    1  UNL1        0.0714
     35 C         142.8374  141.3341  167.9773 C.ar    1  UNL1        0.0040
     36 C         142.1158  141.8417  166.7642 C.ar    1  UNL1        0.0046
     37 C         142.8511  139.9329  170.1651 C.3     1  UNL1        0.4186
     38 F         143.5727  139.4254  171.3782 F       1  UNL1       -0.1659
     39 F         143.7404  141.1407  170.1414 F       1  UNL1       -0.1659
     40 F         141.9618  138.7253  170.1888 F       1  UNL1       -0.1659
@<TRIPOS>UNITY_ATOM_ATTR
21 1
charge -1
@<TRIPOS>BOND
     1    12    13    1
     2    13    14   ar
     3    14    15   ar
     4    15    16   ar
     5    16    11    1
     6    11     8    1
     7     8     9    2
     8     8    10   am
     9    10    19    1
    10    19    20    1
    11    20    21   ar
    12    20    22   ar
    13    10     7    1
    14     7     1    1
    15     1     2   ar
    16     2     3   ar
    17     3     4   ar
    18     4     5   ar
    19     5    23    1
    20    23    24    1
    21    24    25    1
    22    25    26   ar
    23    26    27   ar
    24    27    31    1
    25    31    32   ar
    26    32    33   ar
    27    33    34   ar
    28    34    37    1
    29    37    38    1
    30    37    39    1
    31    37    40    1
    32    34    35   ar
    33    35    36   ar
    34    27    28   ar
    35    28    29   ar
    36    29    30    1
    37     5     6   ar
    38    16    17   ar
    39    17    18   ar
    40    18    13   ar
    41     6     1   ar
    42    29    25   ar
    43    36    31   ar
@<TRIPOS>MOLECULE
*****
 40 43 0 0 0
SMALL
GASTEIGER

@<TRIPOS>ATOM
      1 C         141.4635  144.5626  160.3796 C.ar    1  UNL1        0.0008
      2 C         141.4220  145.2764  159.0610 C.ar    1  UNL1       -0.0024
      3 C         142.2729  144.7981  157.9221 C.ar    1  UNL1        0.0028
      4 C         143.1654  143.6060  158.1018 C.ar    1  UNL1        0.0369
      5 C         143.2069  142.8921  159.4204 C.ar    1  UNL1        0.1389
      6 C         142.3560  143.3704  160.5593 C.ar    1  UNL1        0.0343
      7 C         140.6125  145.0409  161.5185 C.3     1  UNL1        0.1239
      8 C         140.2894  143.5896  163.6491 C.2     1  UNL1        0.4100
      9 O         139.2099  142.8123  162.9559 O.2     1  UNL1       -0.2258
     10 N         140.9907  144.7039  162.9304 N.am    1  UNL1       -0.2363
     11 O         140.6676  143.2526  165.0609 O.3     1  UNL1       -0.4101
     12 C         143.4950  138.0983  166.2605 C.3     1  UNL1        0.0310
     13 C         142.7882  139.3869  165.9606 C.ar    1  UNL1       -0.0217
     14 C         141.7790  139.9314  166.9276 C.ar    1  UNL1       -0.0011
     15 C         141.0722  141.2199  166.6277 C.ar    1  UNL1        0.0373
     16 C         141.3744  141.9640  165.3608 C.ar    1  UNL1        0.1500
     17 C         142.3836  141.4195  164.3938 C.ar    1  UNL1        0.0373
     18 C         143.0905  140.1309  164.6937 C.ar    1  UNL1       -0.0011
     19 C         142.0702  145.4812  163.6236 C.3     1  UNL1        0.1388
     20 C         143.4650  144.9333  163.6888 C.2     1  UNL1        0.0706
     21 O         144.3443  144.9738  162.4741 O.co2   1  UNL1       -0.5474
     22 O         143.9806  144.3449  164.9686 O.co2   1  UNL1       -0.5474
     23 O         144.0994  141.7000  159.6001 O.3     1  UNL1       -0.4689
     24 C         143.6974  140.3701  159.0345 C.3     1  UNL1        0.2537
     25 C         142.7672  139.4788  159.8026 C.ar    1  UNL1        0.1359
     26 N         142.1161  139.8046  161.1141 N.ar    1  UNL1       -0.2093
     27 C         141.2712  138.6322  161.5161 C.ar    1  UNL1        0.2290
     28 O         141.3999  137.5818  160.4530 O.2     1  UNL1       -0.4391
     29 C         142.3245  138.1050  159.3940 C.ar    1  UNL1        0.1421
     30 C         142.7344  137.3815  158.1456 C.3     1  UNL1        0.0740
     31 C         140.4429  138.5285  162.7623 C.ar    1  UNL1        0.0535
     32 C         140.6784  137.4052  163.7280 C.ar    1  UNL1        0.0046
     33 C         139.8501  137.3013  164.9743 C.ar    1  UNL1        0.0040
     34 C         138.7863  138.3210  165.2549 C.ar    1  UNL1        0.0714
     35 C         138.5508  139.4444  164.2892 C.ar    1  UNL1        0.0040
     36 C         139.3791  139.5481  163.0429 C.ar    1  UNL1        0.0046
     37 C         137.9580  138.2173  166.5012 C.3     1  UNL1        0.4186
     38 F         137.1297  138.1135  167.7474 F       1  UNL1       -0.1659
     39 F         137.8197  136.7392  166.2862 F       1  UNL1       -0.1659
     40 F         138.0963  139.6953  166.7161 F       1  UNL1       -0.1659
@<TRIPOS>UNITY_ATOM_ATTR
21 1
charge -1
@<TRIPOS>BOND
     1    12    13    1
     2    13    14   ar
     3    14    15   ar
     4    15    16   ar
     5    16    11    1
     6    11     8    1
     7     8     9    2
     8     8    10   am
     9    10    19    1
    10    19    20    1
    11    20    21   ar
    12    20    22   ar
    13    10     7    1
    14     7     1    1
    15     1     2   ar
    16     2     3   ar
    17     3     4   ar
    18     4     5   ar
    19     5    23    1
    20    23    24    1
    21    24    25    1
    22    25    26   ar
    23    26    27   ar
    24    27    31    1
    25    31    32   ar
    26    32    33   ar
    27    33    34   ar
    28    34    37    1
    29    37    38    1
    30    37    39    1
    31    37    40    1
    32    34    35   ar
    33    35    36   ar
    34    27    28   ar
    35    28    29   ar
    36    29    30    1
    37     5     6   ar
    38    16    17   ar
    39    17    18   ar
    40    18    13   ar
    41     6     1   ar
    42    29    25   ar
    43    36    31   ar
@<TRIPOS>MOLECULE
*****
 40 43 0 0 0
SMALL
GASTEIGER

@<TRIPOS>ATOM
      1 C         142.8224  143.2978  161.4201 C.ar    1  UNL1        0.0008
      2 C         143.7079  144.0809  162.3435 C.ar    1  UNL1       -0.0024
      3 C         143.1324  145.1909  163.1722 C.ar    1  UNL1        0.0028
      4 C         141.6716  145.5178  163.0775 C.ar    1  UNL1        0.0369
      5 C         140.7861  144.7347  162.1541 C.ar    1  UNL1        0.1389
      6 C         141.3615  143.6247  161.3254 C.ar    1  UNL1        0.0343
      7 C         143.3979  142.1878  160.5914 C.3     1  UNL1        0.1239
      8 C         142.0705  139.9557  160.6687 C.2     1  UNL1        0.4100
      9 O         140.9922  140.5677  159.8245 O.2     1  UNL1       -0.2258
     10 N         143.2734  140.7657  161.0521 N.am    1  UNL1       -0.2363
     11 O         141.9460  138.5337  161.1294 O.3     1  UNL1       -0.4101
     12 C         138.4621  137.1968  165.8278 C.3     1  UNL1        0.0310
     13 C         139.3331  137.5310  164.6533 C.ar    1  UNL1       -0.0217
     14 C         140.8150  137.6754  164.8354 C.ar    1  UNL1       -0.0011
     15 C         141.6859  138.0096  163.6608 C.ar    1  UNL1        0.0373
     16 C         141.0750  138.1994  162.3040 C.ar    1  UNL1        0.1500
     17 C         139.5931  138.0550  162.1219 C.ar    1  UNL1        0.0373
     18 C         138.7222  137.7208  163.2966 C.ar    1  UNL1       -0.0011
     19 C         144.3517  140.1537  161.8964 C.3     1  UNL1        0.1388
     20 C         144.7580  140.8074  163.1838 C.2     1  UNL1        0.0706
     21 O         146.0589  141.5493  163.2704 O.co2   1  UNL1       -0.5474
     22 O         143.8636  140.7192  164.3847 O.co2   1  UNL1       -0.5474
     23 O         139.3252  145.0616  162.0594 O.3     1  UNL1       -0.4689
     24 C         138.3638  144.4971  163.0628 C.3     1  UNL1        0.2537
     25 C         138.7358  143.2789  163.8550 C.ar    1  UNL1        0.1359
     26 N         139.6346  143.2485  165.0556 N.ar    1  UNL1       -0.2093
     27 C         139.7286  141.8281  165.5284 C.ar    1  UNL1        0.2290
     28 O         138.8879  140.9805  164.6201 O.2     1  UNL1       -0.4391
     29 C         138.2743  141.8772  163.5859 C.ar    1  UNL1        0.1421
     30 C         137.3598  141.4477  162.4772 C.3     1  UNL1        0.0740
     31 C         140.5236  141.3407  166.7032 C.ar    1  UNL1        0.0535
     32 C         141.8919  141.8967  166.9655 C.ar    1  UNL1        0.0046
     33 C         142.6871  141.4094  168.1403 C.ar    1  UNL1        0.0040
     34 C         142.1138  140.3660  169.0530 C.ar    1  UNL1        0.0714
     35 C         140.7456  139.8100  168.7908 C.ar    1  UNL1        0.0040
     36 C         139.9505  140.2974  167.6159 C.ar    1  UNL1        0.0046
     37 C         142.9090  139.8786  170.2279 C.3     1  UNL1        0.4186
     38 F         143.7041  139.3913  171.4028 F       1  UNL1       -0.1659
     39 F         142.1165  138.6051  170.2359 F       1  UNL1       -0.1659
     40 F         143.7014  141.1521  170.2198 F       1  UNL1       -0.1659
@<TRIPOS>UNITY_ATOM_ATTR
21 1
charge -1
@<TRIPOS>BOND
     1    12    13    1
     2    13    14   ar
     3    14    15   ar
     4    15    16   ar
     5    16    11    1
     6    11     8    1
     7     8     9    2
     8     8    10   am
     9    10    19    1
    10    19    20    1
    11    20    21   ar
    12    20    22   ar
    13    10     7    1
    14     7     1    1
    15     1     2   ar
    16     2     3   ar
    17     3     4   ar
    18     4     5   ar
    19     5    23    1
    20    23    24    1
    21    24    25    1
    22    25    26   ar
    23    26    27   ar
    24    27    31    1
    25    31    32   ar
    26    32    33   ar
    27    33    34   ar
    28    34    37    1
    29    37    38    1
    30    37    39    1
    31    37    40    1
    32    34    35   ar
    33    35    36   ar
    34    27    28   ar
    35    28    29   ar
    36    29    30    1
    37     5     6   ar
    38    16    17   ar
    39    17    18   ar
    40    18    13   ar
    41     6     1   ar
    42    29    25   ar
    43    36    31   ar
@<TRIPOS>MOLECULE
*****
 40 43 0 0 0
SMALL
GASTEIGER

@<TRIPOS>ATOM
      1 C         141.1599  143.3113  158.6993 C.ar    1  UNL1        0.0008
      2 C         140.5092  143.3264  157.3479 C.ar    1  UNL1       -0.0024
      3 C         139.0631  142.9533  157.2076 C.ar    1  UNL1        0.0028
      4 C         138.2678  142.5651  158.4187 C.ar    1  UNL1        0.0369
      5 C         138.9185  142.5500  159.7702 C.ar    1  UNL1        0.1389
      6 C         140.3646  142.9231  159.9104 C.ar    1  UNL1        0.0343
      7 C         142.6060  143.6843  158.8395 C.3     1  UNL1        0.1239
      8 C         143.9039  143.1001  161.0131 C.2     1  UNL1        0.4100
      9 O         143.3281  144.3126  161.6828 O.2     1  UNL1       -0.2258
     10 N         143.5428  142.7860  159.5915 N.am    1  UNL1       -0.2363
     11 O         144.8406  142.2018  161.7650 O.3     1  UNL1       -0.4101
     12 C         142.6831  138.3186  165.7980 C.3     1  UNL1        0.0310
     13 C         143.2224  139.2894  164.7898 C.ar    1  UNL1       -0.0217
     14 C         142.2971  139.9378  163.8032 C.ar    1  UNL1       -0.0011
     15 C         142.8364  140.9086  162.7950 C.ar    1  UNL1        0.0373
     16 C         144.3013  141.2310  162.7733 C.ar    1  UNL1        0.1500
     17 C         145.2266  140.5827  163.7598 C.ar    1  UNL1        0.0373
     18 C         144.6872  139.6118  164.7681 C.ar    1  UNL1       -0.0011
     19 C         144.1185  141.5736  158.9218 C.3     1  UNL1        0.1388
     20 C         143.4682  140.2346  159.1070 C.2     1  UNL1        0.0706
     21 O         144.1785  139.1547  159.8683 O.co2   1  UNL1       -0.5474
     22 O         142.1077  139.9755  158.5309 O.co2   1  UNL1       -0.5474
     23 O         138.1232  142.1619  160.9812 O.3     1  UNL1       -0.4689
     24 C         137.9321  143.1434  162.0993 C.3     1  UNL1        0.2537
     25 C         138.9821  143.2845  163.1611 C.ar    1  UNL1        0.1359
     26 N         139.2696  142.2975  164.2535 N.ar    1  UNL1       -0.2093
     27 C         140.3942  142.8403  165.0846 C.ar    1  UNL1        0.2290
     28 O         140.8018  144.1628  164.5058 O.2     1  UNL1       -0.4391
     29 C         139.9291  144.4374  163.3170 C.ar    1  UNL1        0.1421
     30 C         139.9923  145.6515  162.4385 C.3     1  UNL1        0.0740
     31 C         141.0041  142.1771  166.2837 C.ar    1  UNL1        0.0535
     32 C         140.1762  141.2627  167.1372 C.ar    1  UNL1        0.0046
     33 C         140.7860  140.5994  168.3364 C.ar    1  UNL1        0.0040
     34 C         142.2239  140.8506  168.6822 C.ar    1  UNL1        0.0714
     35 C         143.0518  141.7651  167.8287 C.ar    1  UNL1        0.0040
     36 C         142.4419  142.4283  166.6295 C.ar    1  UNL1        0.0046
     37 C         142.8338  140.1874  169.8814 C.3     1  UNL1        0.4186
     38 F         143.4438  139.5242  171.0807 F       1  UNL1       -0.1659
     39 F         141.8904  139.0321  169.7223 F       1  UNL1       -0.1659
     40 F         143.7772  141.3426  170.0405 F       1  UNL1       -0.1659
@<TRIPOS>UNITY_ATOM_ATTR
21 1
charge -1
@<TRIPOS>BOND
     1    12    13    1
     2    13    14   ar
     3    14    15   ar
     4    15    16   ar
     5    16    11    1
     6    11     8    1
     7     8     9    2
     8     8    10   am
     9    10    19    1
    10    19    20    1
    11    20    21   ar
    12    20    22   ar
    13    10     7    1
    14     7     1    1
    15     1     2   ar
    16     2     3   ar
    17     3     4   ar
    18     4     5   ar
    19     5    23    1
    20    23    24    1
    21    24    25    1
    22    25    26   ar
    23    26    27   ar
    24    27    31    1
    25    31    32   ar
    26    32    33   ar
    27    33    34   ar
    28    34    37    1
    29    37    38    1
    30    37    39    1
    31    37    40    1
    32    34    35   ar
    33    35    36   ar
    34    27    28   ar
    35    28    29   ar
    36    29    30    1
    37     5     6   ar
    38    16    17   ar
    39    17    18   ar
    40    18    13   ar
    41     6     1   ar
    42    29    25   ar
    43    36    31   ar
@<TRIPOS>MOLECULE
*****
 40 43 0 0 0
SMALL
GASTEIGER

@<TRIPOS>ATOM
      1 C         141.0906  142.8257  158.4411 C.ar    1  UNL1        0.0008
      2 C         140.4615  143.3648  157.1907 C.ar    1  UNL1       -0.0024
      3 C         140.0181  144.7965  157.1313 C.ar    1  UNL1        0.0028
      4 C         140.2038  145.6892  158.3224 C.ar    1  UNL1        0.0369
      5 C         140.8330  145.1501  159.5729 C.ar    1  UNL1        0.1389
      6 C         141.2763  143.7184  159.6323 C.ar    1  UNL1        0.0343
      7 C         141.5340  141.3940  158.5005 C.3     1  UNL1        0.1239
      8 C         141.6627  139.1819  159.8571 C.2     1  UNL1        0.4100
      9 O         142.9114  138.8014  159.1181 O.2     1  UNL1       -0.2258
     10 N         140.9740  140.4783  159.5483 N.am    1  UNL1       -0.2363
     11 O         141.1027  138.2662  160.9049 O.3     1  UNL1       -0.4101
     12 C         142.8898  138.7860  166.6089 C.3     1  UNL1        0.0310
     13 C         142.4431  138.6560  165.1829 C.ar    1  UNL1       -0.0217
     14 C         141.6152  137.4786  164.7606 C.ar    1  UNL1       -0.0011
     15 C         141.1685  137.3486  163.3347 C.ar    1  UNL1        0.0373
     16 C         141.5495  138.3962  162.3308 C.ar    1  UNL1        0.1500
     17 C         142.3773  139.5736  162.7531 C.ar    1  UNL1        0.0373
     18 C         142.8241  139.7035  164.1792 C.ar    1  UNL1       -0.0011
     19 C         139.7254  140.8588  160.2872 C.3     1  UNL1        0.1388
     20 C         138.4741  141.1853  159.5272 C.2     1  UNL1        0.0706
     21 O         137.7901  140.1240  158.7172 O.co2   1  UNL1       -0.5474
     22 O         137.9068  142.5729  159.5771 O.co2   1  UNL1       -0.5474
     23 O         141.0186  146.0428  160.7639 O.3     1  UNL1       -0.4689
     24 C         140.1937  145.8279  161.9981 C.3     1  UNL1        0.2537
     25 C         140.4821  144.6644  162.8998 C.ar    1  UNL1        0.1359
     26 N         139.5149  143.5826  163.2799 N.ar    1  UNL1       -0.2093
     27 C         140.2233  142.6280  164.1947 C.ar    1  UNL1        0.2290
     28 O         141.6283  143.1198  164.3801 O.2     1  UNL1       -0.4391
     29 C         141.7882  144.3784  163.5798 C.ar    1  UNL1        0.1421
     30 C         143.0352  145.2057  163.4774 C.3     1  UNL1        0.0740
     31 C         139.6308  141.3976  164.8152 C.ar    1  UNL1        0.0535
     32 C         139.8331  141.1225  166.2758 C.ar    1  UNL1        0.0046
     33 C         139.2406  139.8921  166.8964 C.ar    1  UNL1        0.0040
     34 C         138.4458  138.9368  166.0563 C.ar    1  UNL1        0.0714
     35 C         138.2435  139.2119  164.5957 C.ar    1  UNL1        0.0040
     36 C         138.8360  140.4423  163.9751 C.ar    1  UNL1        0.0046
     37 C         137.8532  137.7064  166.6768 C.3     1  UNL1        0.4186
     38 F         137.2607  136.4760  167.2974 F       1  UNL1       -0.1659
     39 F         137.2165  138.5499  167.7413 F       1  UNL1       -0.1659
     40 F         138.4900  136.8630  165.6124 F       1  UNL1       -0.1659
@<TRIPOS>UNITY_ATOM_ATTR
21 1
charge -1
@<TRIPOS>BOND
     1    12    13    1
     2    13    14   ar
     3    14    15   ar
     4    15    16   ar
     5    16    11    1
     6    11     8    1
     7     8     9    2
     8     8    10   am
     9    10    19    1
    10    19    20    1
    11    20    21   ar
    12    20    22   ar
    13    10     7    1
    14     7     1    1
    15     1     2   ar
    16     2     3   ar
    17     3     4   ar
    18     4     5   ar
    19     5    23    1
    20    23    24    1
    21    24    25    1
    22    25    26   ar
    23    26    27   ar
    24    27    31    1
    25    31    32   ar
    26    32    33   ar
    27    33    34   ar
    28    34    37    1
    29    37    38    1
    30    37    39    1
    31    37    40    1
    32    34    35   ar
    33    35    36   ar
    34    27    28   ar
    35    28    29   ar
    36    29    30    1
    37     5     6   ar
    38    16    17   ar
    39    17    18   ar
    40    18    13   ar
    41     6     1   ar
    42    29    25   ar
    43    36    31   ar
@<TRIPOS>MOLECULE
*****
 40 43 0 0 0
SMALL
GASTEIGER

@<TRIPOS>ATOM
      1 C         143.3467  140.6692  158.1079 C.ar    1  UNL1        0.0008
      2 C         144.3551  140.9219  157.0266 C.ar    1  UNL1       -0.0024
      3 C         145.3983  141.9845  157.2073 C.ar    1  UNL1        0.0028
      4 C         145.4331  142.7944  158.4694 C.ar    1  UNL1        0.0369
      5 C         144.4247  142.5417  159.5508 C.ar    1  UNL1        0.1389
      6 C         143.3815  141.4792  159.3700 C.ar    1  UNL1        0.0343
      7 C         142.3035  139.6067  157.9271 C.3     1  UNL1        0.1239
      8 C         141.9988  137.9989  159.9451 C.2     1  UNL1        0.4100
      9 O         143.3001  137.3322  159.6104 O.2     1  UNL1       -0.2258
     10 N         141.5005  139.1362  159.1034 N.am    1  UNL1       -0.2363
     11 O         141.1957  137.5284  161.1214 O.3     1  UNL1       -0.4101
     12 C         143.2099  138.4631  166.6954 C.3     1  UNL1        0.0310
     13 C         142.7063  138.2295  165.3019 C.ar    1  UNL1       -0.0217
     14 C         143.3223  138.9648  164.1487 C.ar    1  UNL1       -0.0011
     15 C         142.8188  138.7312  162.7552 C.ar    1  UNL1        0.0373
     16 C         141.6993  137.7621  162.5149 C.ar    1  UNL1        0.1500
     17 C         141.0833  137.0268  163.6681 C.ar    1  UNL1        0.0373
     18 C         141.5869  137.2605  165.0616 C.ar    1  UNL1       -0.0011
     19 C         140.1991  139.8029  159.4381 C.3     1  UNL1        0.1388
     20 C         138.9762  139.5147  158.6188 C.2     1  UNL1        0.0706
     21 O         137.6380  140.0266  159.0630 O.co2   1  UNL1       -0.5474
     22 O         139.0914  138.7146  157.3552 O.co2   1  UNL1       -0.5474
     23 O         144.4595  143.3516  160.8128 O.3     1  UNL1       -0.4689
     24 C         143.2007  143.9753  161.3388 C.3     1  UNL1        0.2537
     25 C         142.6173  143.5056  162.6383 C.ar    1  UNL1        0.1359
     26 N         141.6991  142.3334  162.8201 N.ar    1  UNL1       -0.2093
     27 C         141.3638  142.2289  164.2784 C.ar    1  UNL1        0.2290
     28 O         142.0748  143.3366  164.9980 O.2     1  UNL1       -0.4391
     29 C         142.8495  144.1256  163.9843 C.ar    1  UNL1        0.1421
     30 C         143.7059  145.3241  164.2670 C.3     1  UNL1        0.0740
     31 C         140.4739  141.1980  164.9069 C.ar    1  UNL1        0.0535
     32 C         139.5023  140.4297  164.0608 C.ar    1  UNL1        0.0046
     33 C         138.6123  139.3987  164.6891 C.ar    1  UNL1        0.0040
     34 C         138.6939  139.1359  166.1638 C.ar    1  UNL1        0.0714
     35 C         139.6655  139.9041  167.0098 C.ar    1  UNL1        0.0040
     36 C         140.5555  140.9352  166.3814 C.ar    1  UNL1        0.0046
     37 C         137.8040  138.1048  166.7922 C.3     1  UNL1        0.4186
     38 F         136.9140  137.0738  167.4206 F       1  UNL1       -0.1659
     39 F         137.4744  139.0633  167.8980 F       1  UNL1       -0.1659
     40 F         138.1336  137.1464  165.6865 F       1  UNL1       -0.1659
@<TRIPOS>UNITY_ATOM_ATTR
21 1
charge -1
@<TRIPOS>BOND
     1    12    13    1
     2    13    14   ar
     3    14    15   ar
     4    15    16   ar
     5    16    11    1
     6    11     8    1
     7     8     9    2
     8     8    10   am
     9    10    19    1
    10    19    20    1
    11    20    21   ar
    12    20    22   ar
    13    10     7    1
    14     7     1    1
    15     1     2   ar
    16     2     3   ar
    17     3     4   ar
    18     4     5   ar
    19     5    23    1
    20    23    24    1
    21    24    25    1
    22    25    26   ar
    23    26    27   ar
    24    27    31    1
    25    31    32   ar
    26    32    33   ar
    27    33    34   ar
    28    34    37    1
    29    37    38    1
    30    37    39    1
    31    37    40    1
    32    34    35   ar
    33    35    36   ar
    34    27    28   ar
    35    28    29   ar
    36    29    30    1
    37     5     6   ar
    38    16    17   ar
    39    17    18   ar
    40    18    13   ar
    41     6     1   ar
    42    29    25   ar
    43    36    31   ar
