@<TRIPOS>MOLECULE
*****
 34 36 0 0 0
SMALL
GASTEIGER

@<TRIPOS>ATOM
      1 C         140.4737  143.0392  165.2606 C.ar    1  UNL1        0.1681
      2 C         141.6422  142.5324  164.4683 C.ar    1  UNL1        0.0942
      3 CL        142.3386  141.2702  164.8827 Cl      1  UNL1       -0.0790
      4 C         142.1143  143.2878  163.2614 C.ar    1  UNL1        0.0292
      5 C         141.4178  144.5501  162.8469 C.ar    1  UNL1        0.0535
      6 C         140.2494  145.0569  163.6393 C.ar    1  UNL1        0.0292
      7 C         139.7773  144.3014  164.8461 C.ar    1  UNL1        0.0942
      8 CL        138.6088  144.8082  165.6385 Cl      1  UNL1       -0.0790
      9 N         141.8899  145.3055  161.6401 N.am    1  UNL1       -0.2680
     10 C         141.4832  144.8567  160.2678 C.2     1  UNL1        0.3082
     11 O         140.6044  143.6524  160.1024 O.2     1  UNL1       -0.2522
     12 N         141.9552  145.6121  159.0610 N.am    1  UNL1       -0.2681
     13 H         142.4667  146.0960  161.7487 H       1  UNL1        0.1564
     14 H         142.5320  146.4025  159.1696 H       1  UNL1        0.1564
     15 C         141.5485  145.1633  157.6887 C.ar    1  UNL1        0.0515
     16 C         142.4703  144.3019  156.8775 C.ar    1  UNL1        0.0147
     17 C         142.0636  143.8530  155.5052 C.ar    1  UNL1        0.0012
     18 C         140.7351  144.2656  154.9442 C.ar    1  UNL1        0.0039
     19 C         139.8133  145.1270  155.7555 C.ar    1  UNL1        0.0727
     20 C         140.2200  145.5759  157.1277 C.ar    1  UNL1        0.0186
     21 C         138.4847  145.5396  155.1945 C.3     1  UNL1        0.4186
     22 F         137.1562  145.9522  154.6335 F       1  UNL1       -0.1659
     23 F         138.3980  144.2427  154.4459 F       1  UNL1       -0.1659
     24 F         138.5714  146.8366  155.9431 F       1  UNL1       -0.1659
     25 O         140.0016  142.2838  166.4674 O.3     1  UNL1       -0.4342
     26 C         142.3022  142.0863  169.6952 C.ar    1  UNL1        0.1350
     27 C         141.7250  141.7795  168.3452 C.ar    1  UNL1        0.0922
     28 C         140.5789  142.5907  167.8175 C.ar    1  UNL1        0.2340
     29 N         140.0100  143.7087  168.6399 N.ar    1  UNL1       -0.1889
     30 C         140.5872  144.0155  169.9899 C.ar    1  UNL1        0.2027
     31 N         141.7333  143.2043  170.5176 N.ar    1  UNL1       -0.2090
     32 C         143.2048  139.8997  170.7695 C.3     1  UNL1        0.1096
     33 N         143.4483  141.2751  170.2228 N.pl3   1  UNL1       -0.3165
     34 H         144.3604  141.6455  170.2104 H       1  UNL1        0.1483
@<TRIPOS>BOND
     1    32    33    1
     2    33    26    1
     3    26    27   ar
     4    27    28   ar
     5    28    25    1
     6    25     1    1
     7     1     2   ar
     8     2     3    1
     9     2     4   ar
    10     4     5   ar
    11     5     9    1
    12     9    10   am
    13    10    11    2
    14    10    12   am
    15    12    15    1
    16    15    16   ar
    17    16    17   ar
    18    17    18   ar
    19    18    19   ar
    20    19    21    1
    21    21    22    1
    22    21    23    1
    23    21    24    1
    24    19    20   ar
    25     5     6   ar
    26     6     7   ar
    27     7     8    1
    28    28    29   ar
    29    29    30   ar
    30    30    31   ar
    31    31    26   ar
    32     7     1   ar
    33    20    15   ar
    34    33    34    1
    35     9    13    1
    36    12    14    1
@<TRIPOS>MOLECULE
*****
 34 36 0 0 0
SMALL
GASTEIGER

@<TRIPOS>ATOM
      1 C         141.4612  138.3603  156.9560 C.ar    1  UNL1        0.1681
      2 C         139.9848  138.2531  157.1981 C.ar    1  UNL1        0.0942
      3 CL        139.1552  137.3163  156.3710 Cl      1  UNL1       -0.0790
      4 C         139.3379  139.0826  158.2674 C.ar    1  UNL1        0.0292
      5 C         140.1676  140.0195  159.0946 C.ar    1  UNL1        0.0535
      6 C         141.6440  140.1267  158.8524 C.ar    1  UNL1        0.0292
      7 C         142.2908  139.2971  157.7831 C.ar    1  UNL1        0.0942
      8 CL        143.7673  139.4044  157.5409 Cl      1  UNL1       -0.0790
      9 N         139.5208  140.8490  160.1639 N.am    1  UNL1       -0.2680
     10 C         139.6592  140.4557  161.6049 C.2     1  UNL1        0.3082
     11 O         140.4444  139.2329  161.9764 O.2     1  UNL1       -0.2522
     12 N         139.0123  141.2852  162.6742 N.am    1  UNL1       -0.2681
     13 H         139.0054  141.6516  159.9201 H       1  UNL1        0.1564
     14 H         138.4970  142.0879  162.4303 H       1  UNL1        0.1564
     15 C         139.1507  140.8920  164.1150 C.ar    1  UNL1        0.0515
     16 C         139.9663  141.7371  165.0481 C.ar    1  UNL1        0.0147
     17 C         140.1047  141.3438  166.4891 C.ar    1  UNL1        0.0012
     18 C         139.4275  140.1054  166.9969 C.ar    1  UNL1        0.0039
     19 C         138.6119  139.2603  166.0637 C.ar    1  UNL1        0.0727
     20 C         138.4735  139.6536  164.6229 C.ar    1  UNL1        0.0186
     21 C         137.9347  138.0220  166.5715 C.3     1  UNL1        0.4186
     22 F         137.2576  136.7836  167.0793 F       1  UNL1       -0.1659
     23 F         137.3748  138.8010  167.7246 F       1  UNL1       -0.1659
     24 F         138.4947  137.2429  165.4185 F       1  UNL1       -0.1659
     25 O         142.1081  137.5308  155.8866 O.3     1  UNL1       -0.4342
     26 C         143.2781  133.9943  157.2558 C.ar    1  UNL1        0.1350
     27 C         143.1611  135.4799  157.0845 C.ar    1  UNL1        0.0922
     28 C         142.2250  136.0451  156.0579 C.ar    1  UNL1        0.2340
     29 N         141.4058  135.1248  155.2024 N.ar    1  UNL1       -0.1889
     30 C         141.5227  133.6392  155.3736 C.ar    1  UNL1        0.2027
     31 N         142.4589  133.0740  156.4003 N.ar    1  UNL1       -0.2090
     32 C         145.1340  132.3014  157.9187 C.3     1  UNL1        0.1096
     33 N         144.2142  133.4291  158.2825 N.pl3   1  UNL1       -0.3165
     34 H         144.2250  133.7982  159.1951 H       1  UNL1        0.1483
@<TRIPOS>BOND
     1    32    33    1
     2    33    26    1
     3    26    27   ar
     4    27    28   ar
     5    28    25    1
     6    25     1    1
     7     1     2   ar
     8     2     3    1
     9     2     4   ar
    10     4     5   ar
    11     5     9    1
    12     9    10   am
    13    10    11    2
    14    10    12   am
    15    12    15    1
    16    15    16   ar
    17    16    17   ar
    18    17    18   ar
    19    18    19   ar
    20    19    21    1
    21    21    22    1
    22    21    23    1
    23    21    24    1
    24    19    20   ar
    25     5     6   ar
    26     6     7   ar
    27     7     8    1
    28    28    29   ar
    29    29    30   ar
    30    30    31   ar
    31    31    26   ar
    32     7     1   ar
    33    20    15   ar
    34    33    34    1
    35     9    13    1
    36    12    14    1
@<TRIPOS>MOLECULE
*****
 34 36 0 0 0
SMALL
GASTEIGER

@<TRIPOS>ATOM
      1 C         138.4399  139.7112  164.6658 C.ar    1  UNL1        0.1681
      2 C         138.7370  138.3405  164.1339 C.ar    1  UNL1        0.0942
      3 CL        139.0258  137.2145  165.0820 Cl      1  UNL1       -0.0790
      4 C         138.7452  138.0957  162.6541 C.ar    1  UNL1        0.0292
      5 C         138.4563  139.2217  161.7060 C.ar    1  UNL1        0.0535
      6 C         138.1593  140.5924  162.2379 C.ar    1  UNL1        0.0292
      7 C         138.1510  140.8372  163.7177 C.ar    1  UNL1        0.0942
      8 CL        137.8539  142.2080  164.2496 Cl      1  UNL1       -0.0790
      9 N         138.4646  138.9770  160.2261 N.am    1  UNL1       -0.2680
     10 C         139.7678  138.8614  159.4923 C.2     1  UNL1        0.3082
     11 O         141.0626  138.9907  160.2383 O.2     1  UNL1       -0.2522
     12 N         139.7760  138.6167  158.0124 N.am    1  UNL1       -0.2681
     13 H         137.6147  138.8921  159.7365 H       1  UNL1        0.1564
     14 H         138.9261  138.5319  157.5228 H       1  UNL1        0.1564
     15 C         141.0791  138.5012  157.2786 C.ar    1  UNL1        0.0515
     16 C         141.7765  139.7359  156.7898 C.ar    1  UNL1        0.0147
     17 C         143.0797  139.6204  156.0559 C.ar    1  UNL1        0.0012
     18 C         143.6853  138.2702  155.8108 C.ar    1  UNL1        0.0039
     19 C         142.9878  137.0354  156.2996 C.ar    1  UNL1        0.0727
     20 C         141.6847  137.1509  157.0335 C.ar    1  UNL1        0.0186
     21 C         143.5934  135.6852  156.0546 C.3     1  UNL1        0.4186
     22 F         144.1990  134.3349  155.8095 F       1  UNL1       -0.1659
     23 F         142.4622  135.0423  156.8009 F       1  UNL1       -0.1659
     24 F         144.7246  136.3281  155.3082 F       1  UNL1       -0.1659
     25 O         138.4316  139.9560  166.1456 O.3     1  UNL1       -0.4342
     26 C         140.9994  139.9761  169.1716 C.ar    1  UNL1        0.1350
     27 C         139.7083  139.9507  168.4084 C.ar    1  UNL1        0.0922
     28 C         139.7228  139.9815  166.9088 C.ar    1  UNL1        0.2340
     29 N         141.0283  140.0377  166.1724 N.ar    1  UNL1       -0.1889
     30 C         142.3194  140.0632  166.9355 C.ar    1  UNL1        0.2027
     31 N         142.3049  140.0324  168.4351 N.ar    1  UNL1       -0.2090
     32 C         141.1188  141.2209  171.4489 C.3     1  UNL1        0.1096
     33 N         140.9849  139.9453  170.6712 N.pl3   1  UNL1       -0.3165
     34 H         140.8876  139.0878  171.1450 H       1  UNL1        0.1483
@<TRIPOS>BOND
     1    32    33    1
     2    33    26    1
     3    26    27   ar
     4    27    28   ar
     5    28    25    1
     6    25     1    1
     7     1     2   ar
     8     2     3    1
     9     2     4   ar
    10     4     5   ar
    11     5     9    1
    12     9    10   am
    13    10    11    2
    14    10    12   am
    15    12    15    1
    16    15    16   ar
    17    16    17   ar
    18    17    18   ar
    19    18    19   ar
    20    19    21    1
    21    21    22    1
    22    21    23    1
    23    21    24    1
    24    19    20   ar
    25     5     6   ar
    26     6     7   ar
    27     7     8    1
    28    28    29   ar
    29    29    30   ar
    30    30    31   ar
    31    31    26   ar
    32     7     1   ar
    33    20    15   ar
    34    33    34    1
    35     9    13    1
    36    12    14    1
@<TRIPOS>MOLECULE
*****
 34 36 0 0 0
SMALL
GASTEIGER

@<TRIPOS>ATOM
      1 C         139.9477  144.8056  155.1316 C.ar    1  UNL1        0.1681
      2 C         139.5742  146.0411  155.8959 C.ar    1  UNL1        0.0942
      3 CL        138.5660  146.9969  155.3302 Cl      1  UNL1       -0.0790
      4 C         140.2090  146.3208  157.2259 C.ar    1  UNL1        0.0292
      5 C         141.2172  145.3650  157.7915 C.ar    1  UNL1        0.0535
      6 C         141.5907  144.1296  157.0272 C.ar    1  UNL1        0.0292
      7 C         140.9559  143.8499  155.6973 C.ar    1  UNL1        0.0942
      8 CL        141.3294  142.6144  154.9329 Cl      1  UNL1       -0.0790
      9 N         141.8520  145.6447  159.1215 N.am    1  UNL1       -0.2680
     10 C         141.3250  144.9800  160.3587 C.2     1  UNL1        0.3082
     11 O         140.1634  144.0357  160.2659 O.2     1  UNL1       -0.2522
     12 N         141.9598  145.2597  161.6887 N.am    1  UNL1       -0.2681
     13 H         142.6145  146.2645  159.1824 H       1  UNL1        0.1564
     14 H         142.7223  145.8795  161.7496 H       1  UNL1        0.1564
     15 C         141.4329  144.5951  162.9258 C.ar    1  UNL1        0.0515
     16 C         142.2694  143.5790  163.6455 C.ar    1  UNL1        0.0147
     17 C         141.7425  142.9143  164.8827 C.ar    1  UNL1        0.0012
     18 C         140.3791  143.2657  165.4002 C.ar    1  UNL1        0.0039
     19 C         139.5426  144.2818  164.6804 C.ar    1  UNL1        0.0727
     20 C         140.0696  144.9465  163.4433 C.ar    1  UNL1        0.0186
     21 C         138.1793  144.6332  165.1979 C.3     1  UNL1        0.4186
     22 F         136.8159  144.9846  165.7154 F       1  UNL1       -0.1659
     23 F         138.8018  145.2741  166.4028 F       1  UNL1       -0.1659
     24 F         137.5568  143.9924  163.9930 F       1  UNL1       -0.1659
     25 O         139.3129  144.5259  153.8016 O.3     1  UNL1       -0.4342
     26 C         136.2552  142.2403  154.8863 C.ar    1  UNL1        0.1350
     27 C         137.4539  143.1380  154.9712 C.ar    1  UNL1        0.0922
     28 C         138.1142  143.6282  153.7167 C.ar    1  UNL1        0.2340
     29 N         137.5757  143.2208  152.3773 N.ar    1  UNL1       -0.1889
     30 C         136.3770  142.3231  152.2924 C.ar    1  UNL1        0.2027
     31 N         135.7168  141.8329  153.5469 N.ar    1  UNL1       -0.2090
     32 C         134.6778  140.5643  156.0915 C.3     1  UNL1        0.1096
     33 N         135.5950  141.7501  156.1408 N.pl3   1  UNL1       -0.3165
     34 H         135.7636  142.2067  156.9966 H       1  UNL1        0.1483
@<TRIPOS>BOND
     1    32    33    1
     2    33    26    1
     3    26    27   ar
     4    27    28   ar
     5    28    25    1
     6    25     1    1
     7     1     2   ar
     8     2     3    1
     9     2     4   ar
    10     4     5   ar
    11     5     9    1
    12     9    10   am
    13    10    11    2
    14    10    12   am
    15    12    15    1
    16    15    16   ar
    17    16    17   ar
    18    17    18   ar
    19    18    19   ar
    20    19    21    1
    21    21    22    1
    22    21    23    1
    23    21    24    1
    24    19    20   ar
    25     5     6   ar
    26     6     7   ar
    27     7     8    1
    28    28    29   ar
    29    29    30   ar
    30    30    31   ar
    31    31    26   ar
    32     7     1   ar
    33    20    15   ar
    34    33    34    1
    35     9    13    1
    36    12    14    1
@<TRIPOS>MOLECULE
*****
 34 36 0 0 0
SMALL
GASTEIGER

@<TRIPOS>ATOM
      1 C         140.1435  142.6453  165.0962 C.ar    1  UNL1        0.1681
      2 C         139.1482  143.4451  164.3089 C.ar    1  UNL1        0.0942
      3 CL        137.6857  143.3443  164.6265 Cl      1  UNL1       -0.0790
      4 C         139.6155  144.3456  163.2041 C.ar    1  UNL1        0.0292
      5 C         141.0781  144.4464  162.8865 C.ar    1  UNL1        0.0535
      6 C         142.0733  143.6466  163.6738 C.ar    1  UNL1        0.0292
      7 C         141.6060  142.7460  164.7786 C.ar    1  UNL1        0.0942
      8 CL        142.6014  141.9462  165.5659 Cl      1  UNL1       -0.0790
      9 N         141.5453  145.3470  161.7817 N.am    1  UNL1       -0.2680
     10 C         141.2761  144.9818  160.3519 C.2     1  UNL1        0.3082
     11 O         140.5397  143.7161  160.0270 O.2     1  UNL1       -0.2522
     12 N         141.7434  145.8824  159.2471 N.am    1  UNL1       -0.2681
     13 H         142.0287  146.1777  161.9950 H       1  UNL1        0.1564
     14 H         142.2267  146.7131  159.4604 H       1  UNL1        0.1564
     15 C         141.4742  145.5172  157.8174 C.ar    1  UNL1        0.0515
     16 C         142.5526  144.8837  156.9893 C.ar    1  UNL1        0.0147
     17 C         142.2834  144.5185  155.5595 C.ar    1  UNL1        0.0012
     18 C         140.9359  144.7869  154.9578 C.ar    1  UNL1        0.0039
     19 C         139.8574  145.4205  155.7859 C.ar    1  UNL1        0.0727
     20 C         140.1266  145.7856  157.2157 C.ar    1  UNL1        0.0186
     21 C         138.5099  145.6889  155.1843 C.3     1  UNL1        0.4186
     22 F         137.1623  145.9573  154.5826 F       1  UNL1       -0.1659
     23 F         138.5373  144.3430  154.5225 F       1  UNL1       -0.1659
     24 F         138.4824  147.0347  155.8460 F       1  UNL1       -0.1659
     25 O         139.6763  141.7447  166.2010 O.3     1  UNL1       -0.4342
     26 C         139.3833  138.2601  164.3242 C.ar    1  UNL1        0.1350
     27 C         139.7543  139.6826  164.6225 C.ar    1  UNL1        0.0922
     28 C         139.3052  140.3222  165.9028 C.ar    1  UNL1        0.2340
     29 N         138.4852  139.5393  166.8850 N.ar    1  UNL1       -0.1889
     30 C         138.1143  138.1168  166.5867 C.ar    1  UNL1        0.2027
     31 N         138.5633  137.4773  165.3064 N.ar    1  UNL1       -0.2090
     32 C         141.2912  137.5783  162.6980 C.3     1  UNL1        0.1096
     33 N         139.8323  137.6206  163.0439 N.pl3   1  UNL1       -0.3165
     34 H         139.1695  137.2285  162.4306 H       1  UNL1        0.1483
@<TRIPOS>BOND
     1    32    33    1
     2    33    26    1
     3    26    27   ar
     4    27    28   ar
     5    28    25    1
     6    25     1    1
     7     1     2   ar
     8     2     3    1
     9     2     4   ar
    10     4     5   ar
    11     5     9    1
    12     9    10   am
    13    10    11    2
    14    10    12   am
    15    12    15    1
    16    15    16   ar
    17    16    17   ar
    18    17    18   ar
    19    18    19   ar
    20    19    21    1
    21    21    22    1
    22    21    23    1
    23    21    24    1
    24    19    20   ar
    25     5     6   ar
    26     6     7   ar
    27     7     8    1
    28    28    29   ar
    29    29    30   ar
    30    30    31   ar
    31    31    26   ar
    32     7     1   ar
    33    20    15   ar
    34    33    34    1
    35     9    13    1
    36    12    14    1
@<TRIPOS>MOLECULE
*****
 34 36 0 0 0
SMALL
GASTEIGER

@<TRIPOS>ATOM
      1 C         140.1119  142.3584  164.4001 C.ar    1  UNL1        0.1681
      2 C         140.0040  143.8408  164.1978 C.ar    1  UNL1        0.0942
      3 CL        139.1755  144.6675  165.1360 Cl      1  UNL1       -0.0790
      4 C         140.7245  144.4965  163.0572 C.ar    1  UNL1        0.0292
      5 C         141.5530  143.6698  162.1190 C.ar    1  UNL1        0.0535
      6 C         141.6609  142.1875  162.3213 C.ar    1  UNL1        0.0292
      7 C         140.9403  141.5318  163.4619 C.ar    1  UNL1        0.0942
      8 CL        141.0483  140.0493  163.6641 Cl      1  UNL1       -0.0790
      9 N         142.2735  144.3255  160.9784 N.am    1  UNL1       -0.2680
     10 C         141.5928  144.4798  159.6507 C.2     1  UNL1        0.3082
     11 O         140.1915  143.9784  159.4636 O.2     1  UNL1       -0.2522
     12 N         142.3133  145.1355  158.5101 N.am    1  UNL1       -0.2681
     13 H         143.1932  144.6546  161.1013 H       1  UNL1        0.1564
     14 H         143.2330  145.4646  158.6330 H       1  UNL1        0.1564
     15 C         141.6326  145.2899  157.1825 C.ar    1  UNL1        0.0515
     16 C         141.8093  144.2429  156.1229 C.ar    1  UNL1        0.0147
     17 C         141.1286  144.3972  154.7951 C.ar    1  UNL1        0.0012
     18 C         140.2712  145.5984  154.5270 C.ar    1  UNL1        0.0039
     19 C         140.0945  146.6454  155.5866 C.ar    1  UNL1        0.0727
     20 C         140.7752  146.4911  156.9143 C.ar    1  UNL1        0.0186
     21 C         139.2371  147.8466  155.3185 C.3     1  UNL1        0.4186
     22 F         138.3797  149.0478  155.0503 F       1  UNL1       -0.1659
     23 F         139.7991  147.9379  153.9307 F       1  UNL1       -0.1659
     24 F         138.6751  147.7553  156.7062 F       1  UNL1       -0.1659
     25 O         139.3914  141.7027  165.5406 O.3     1  UNL1       -0.4342
     26 C         142.1211  141.8632  168.4169 C.ar    1  UNL1        0.1350
     27 C         141.3972  142.1406  167.1328 C.ar    1  UNL1        0.0922
     28 C         140.1153  141.4252  166.8248 C.ar    1  UNL1        0.2340
     29 N         139.5573  140.4322  167.8008 N.ar    1  UNL1       -0.1889
     30 C         140.2812  140.1548  169.0849 C.ar    1  UNL1        0.2027
     31 N         141.5631  140.8702  169.3929 N.ar    1  UNL1       -0.2090
     32 C         144.0698  142.3839  170.0543 C.3     1  UNL1        0.1096
     33 N         143.4030  142.5786  168.7249 N.pl3   1  UNL1       -0.3165
     34 H         143.8067  143.1760  168.0545 H       1  UNL1        0.1483
@<TRIPOS>BOND
     1    32    33    1
     2    33    26    1
     3    26    27   ar
     4    27    28   ar
     5    28    25    1
     6    25     1    1
     7     1     2   ar
     8     2     3    1
     9     2     4   ar
    10     4     5   ar
    11     5     9    1
    12     9    10   am
    13    10    11    2
    14    10    12   am
    15    12    15    1
    16    15    16   ar
    17    16    17   ar
    18    17    18   ar
    19    18    19   ar
    20    19    21    1
    21    21    22    1
    22    21    23    1
    23    21    24    1
    24    19    20   ar
    25     5     6   ar
    26     6     7   ar
    27     7     8    1
    28    28    29   ar
    29    29    30   ar
    30    30    31   ar
    31    31    26   ar
    32     7     1   ar
    33    20    15   ar
    34    33    34    1
    35     9    13    1
    36    12    14    1
@<TRIPOS>MOLECULE
*****
 34 36 0 0 0
SMALL
GASTEIGER

@<TRIPOS>ATOM
      1 C         140.5296  140.9738  160.1103 C.ar    1  UNL1        0.1681
      2 C         140.6300  141.2800  158.6453 C.ar    1  UNL1        0.0942
      3 CL        139.7761  142.3566  158.0439 Cl      1  UNL1       -0.0790
      4 C         141.5843  140.5095  157.7817 C.ar    1  UNL1        0.0292
      5 C         142.4382  139.4329  158.3832 C.ar    1  UNL1        0.0535
      6 C         142.3378  139.1267  159.8482 C.ar    1  UNL1        0.0292
      7 C         141.3835  139.8972  160.7117 C.ar    1  UNL1        0.0942
      8 CL        141.2831  139.5909  162.1768 Cl      1  UNL1       -0.0790
      9 N         143.3925  138.6624  157.5197 N.am    1  UNL1       -0.2680
     10 C         142.9695  137.3567  156.9144 C.2     1  UNL1        0.3082
     11 O         141.5923  136.8215  157.1728 O.2     1  UNL1       -0.2522
     12 N         143.9238  136.5862  156.0509 N.am    1  UNL1       -0.2681
     13 H         144.2964  139.0137  157.3502 H       1  UNL1        0.1564
     14 H         144.8278  136.9375  155.8814 H       1  UNL1        0.1564
     15 C         143.5009  135.2806  155.4457 C.ar    1  UNL1        0.0515
     16 C         142.6569  135.2672  154.2058 C.ar    1  UNL1        0.0147
     17 C         142.2339  133.9615  153.6005 C.ar    1  UNL1        0.0012
     18 C         142.6550  132.6692  154.2351 C.ar    1  UNL1        0.0039
     19 C         143.4991  132.6827  155.4751 C.ar    1  UNL1        0.0727
     20 C         143.9220  133.9883  156.0803 C.ar    1  UNL1        0.0186
     21 C         143.9202  131.3905  156.1097 C.3     1  UNL1        0.4186
     22 F         144.3414  130.0982  156.7444 F       1  UNL1       -0.1659
     23 F         142.4866  130.9535  156.1713 F       1  UNL1       -0.1659
     24 F         145.3539  131.8274  156.0482 F       1  UNL1       -0.1659
     25 O         139.5753  141.7442  160.9739 O.3     1  UNL1       -0.4342
     26 C         141.7974  144.7561  162.2934 C.ar    1  UNL1        0.1350
     27 C         141.4080  143.4081  161.7631 C.ar    1  UNL1        0.0922
     28 C         139.9646  143.0923  161.5042 C.ar    1  UNL1        0.2340
     29 N         138.9107  144.1245  161.7755 N.ar    1  UNL1       -0.1889
     30 C         139.3001  145.4725  162.3058 C.ar    1  UNL1        0.2027
     31 N         140.7434  145.7883  162.5648 N.ar    1  UNL1       -0.2090
     32 C         144.2697  143.9822  162.4903 C.3     1  UNL1        0.1096
     33 N         143.2407  145.0718  162.5523 N.pl3   1  UNL1       -0.3165
     34 H         143.5127  145.9943  162.7630 H       1  UNL1        0.1483
@<TRIPOS>BOND
     1    32    33    1
     2    33    26    1
     3    26    27   ar
     4    27    28   ar
     5    28    25    1
     6    25     1    1
     7     1     2   ar
     8     2     3    1
     9     2     4   ar
    10     4     5   ar
    11     5     9    1
    12     9    10   am
    13    10    11    2
    14    10    12   am
    15    12    15    1
    16    15    16   ar
    17    16    17   ar
    18    17    18   ar
    19    18    19   ar
    20    19    21    1
    21    21    22    1
    22    21    23    1
    23    21    24    1
    24    19    20   ar
    25     5     6   ar
    26     6     7   ar
    27     7     8    1
    28    28    29   ar
    29    29    30   ar
    30    30    31   ar
    31    31    26   ar
    32     7     1   ar
    33    20    15   ar
    34    33    34    1
    35     9    13    1
    36    12    14    1
@<TRIPOS>MOLECULE
*****
 34 36 0 0 0
SMALL
GASTEIGER

@<TRIPOS>ATOM
      1 C         141.1787  142.2831  158.9984 C.ar    1  UNL1        0.1681
      2 C         142.3952  141.7147  159.6673 C.ar    1  UNL1        0.0942
      3 CL        142.7477  142.1332  161.0639 Cl      1  UNL1       -0.0790
      4 C         143.2590  140.7277  158.9395 C.ar    1  UNL1        0.0292
      5 C         142.9064  140.3092  157.5428 C.ar    1  UNL1        0.0535
      6 C         141.6900  140.8777  156.8740 C.ar    1  UNL1        0.0292
      7 C         140.8262  141.8646  157.6019 C.ar    1  UNL1        0.0942
      8 CL        139.6098  142.4330  156.9330 Cl      1  UNL1       -0.0790
      9 N         143.7702  139.3223  156.8150 N.am    1  UNL1       -0.2680
     10 C         143.2660  137.9339  156.5536 C.2     1  UNL1        0.3082
     11 O         141.8981  137.5325  157.0200 O.2     1  UNL1       -0.2522
     12 N         144.1299  136.9469  155.8258 N.am    1  UNL1       -0.2681
     13 H         144.6681  139.5857  156.5089 H       1  UNL1        0.1564
     14 H         145.0277  137.2104  155.5197 H       1  UNL1        0.1564
     15 C         143.6258  135.5586  155.5644 C.ar    1  UNL1        0.0515
     16 C         142.7092  135.2993  154.4058 C.ar    1  UNL1        0.0147
     17 C         142.2050  133.9109  154.1443 C.ar    1  UNL1        0.0012
     18 C         142.6175  132.7819  155.0416 C.ar    1  UNL1        0.0039
     19 C         143.5342  133.0412  156.2003 C.ar    1  UNL1        0.0727
     20 C         144.0383  134.4295  156.4617 C.ar    1  UNL1        0.0186
     21 C         143.9467  131.9122  157.0976 C.3     1  UNL1        0.4186
     22 F         144.3592  130.7831  157.9948 F       1  UNL1       -0.1659
     23 F         145.3752  132.3602  157.0046 F       1  UNL1       -0.1659
     24 F         142.5182  131.4641  157.1905 F       1  UNL1       -0.1659
     25 O         140.3149  143.2701  159.7263 O.3     1  UNL1       -0.4342
     26 C         137.7662  140.8838  161.6131 C.ar    1  UNL1        0.1350
     27 C         138.8008  141.3669  160.6404 C.ar    1  UNL1        0.0922
     28 C         139.2802  142.7870  160.6990 C.ar    1  UNL1        0.2340
     29 N         138.7251  143.7240  161.7304 N.ar    1  UNL1       -0.1889
     30 C         137.6905  143.2409  162.7031 C.ar    1  UNL1        0.2027
     31 N         137.2110  141.8208  162.6444 N.ar    1  UNL1       -0.2090
     32 C         138.1720  138.3528  162.0362 C.3     1  UNL1        0.1096
     33 N         137.2868  139.4637  161.5544 N.pl3   1  UNL1       -0.3165
     34 H         136.3911  139.2608  161.1997 H       1  UNL1        0.1483
@<TRIPOS>BOND
     1    32    33    1
     2    33    26    1
     3    26    27   ar
     4    27    28   ar
     5    28    25    1
     6    25     1    1
     7     1     2   ar
     8     2     3    1
     9     2     4   ar
    10     4     5   ar
    11     5     9    1
    12     9    10   am
    13    10    11    2
    14    10    12   am
    15    12    15    1
    16    15    16   ar
    17    16    17   ar
    18    17    18   ar
    19    18    19   ar
    20    19    21    1
    21    21    22    1
    22    21    23    1
    23    21    24    1
    24    19    20   ar
    25     5     6   ar
    26     6     7   ar
    27     7     8    1
    28    28    29   ar
    29    29    30   ar
    30    30    31   ar
    31    31    26   ar
    32     7     1   ar
    33    20    15   ar
    34    33    34    1
    35     9    13    1
    36    12    14    1
@<TRIPOS>MOLECULE
*****
 34 36 0 0 0
SMALL
GASTEIGER

@<TRIPOS>ATOM
      1 C         140.0750  141.2211  159.6829 C.ar    1  UNL1        0.1681
      2 C         140.9947  140.3160  160.4477 C.ar    1  UNL1        0.0942
      3 CL        140.8757  140.2124  161.9393 Cl      1  UNL1       -0.0790
      4 C         142.0335  139.5144  159.7207 C.ar    1  UNL1        0.0292
      5 C         142.1524  139.6180  158.2290 C.ar    1  UNL1        0.0535
      6 C         141.2327  140.5231  157.4643 C.ar    1  UNL1        0.0292
      7 C         140.1940  141.3247  158.1913 C.ar    1  UNL1        0.0942
      8 CL        139.2742  142.2299  157.4265 Cl      1  UNL1       -0.0790
      9 N         143.1912  138.8164  157.5020 N.am    1  UNL1       -0.2680
     10 C         142.8393  137.4746  156.9312 C.2     1  UNL1        0.3082
     11 O         141.4487  136.9344  157.0874 O.2     1  UNL1       -0.2522
     12 N         143.8780  136.6730  156.2043 N.am    1  UNL1       -0.2681
     13 H         144.1039  139.1709  157.3995 H       1  UNL1        0.1564
     14 H         144.7907  137.0275  156.1018 H       1  UNL1        0.1564
     15 C         143.5262  135.3312  155.6335 C.ar    1  UNL1        0.0515
     16 C         142.7718  135.2408  154.3402 C.ar    1  UNL1        0.0147
     17 C         142.4200  133.8990  153.7694 C.ar    1  UNL1        0.0012
     18 C         142.8225  132.6476  154.4919 C.ar    1  UNL1        0.0039
     19 C         143.5769  132.7381  155.7853 C.ar    1  UNL1        0.0727
     20 C         143.9287  134.0798  156.3561 C.ar    1  UNL1        0.0186
     21 C         143.9794  131.4867  156.5079 C.3     1  UNL1        0.4186
     22 F         144.3819  130.2354  157.2304 F       1  UNL1       -0.1659
     23 F         142.5455  131.2335  156.8682 F       1  UNL1       -0.1659
     24 F         145.4133  131.7399  156.1476 F       1  UNL1       -0.1659
     25 O         139.0362  142.0227  160.4099 O.3     1  UNL1       -0.4342
     26 C         139.7301  144.9491  162.9993 C.ar    1  UNL1        0.1350
     27 C         139.3838  143.5986  162.4461 C.ar    1  UNL1        0.0922
     28 C         139.3826  143.3734  160.9631 C.ar    1  UNL1        0.2340
     29 N         139.7278  144.4986  160.0333 N.ar    1  UNL1       -0.1889
     30 C         140.0741  145.8492  160.5865 C.ar    1  UNL1        0.2027
     31 N         140.0753  146.0744  162.0695 N.ar    1  UNL1       -0.2090
     32 C         138.5219  144.8199  165.2957 C.3     1  UNL1        0.1096
     33 N         139.7313  145.1744  164.4823 N.pl3   1  UNL1       -0.3165
     34 H         140.5258  145.5549  164.9217 H       1  UNL1        0.1483
@<TRIPOS>BOND
     1    32    33    1
     2    33    26    1
     3    26    27   ar
     4    27    28   ar
     5    28    25    1
     6    25     1    1
     7     1     2   ar
     8     2     3    1
     9     2     4   ar
    10     4     5   ar
    11     5     9    1
    12     9    10   am
    13    10    11    2
    14    10    12   am
    15    12    15    1
    16    15    16   ar
    17    16    17   ar
    18    17    18   ar
    19    18    19   ar
    20    19    21    1
    21    21    22    1
    22    21    23    1
    23    21    24    1
    24    19    20   ar
    25     5     6   ar
    26     6     7   ar
    27     7     8    1
    28    28    29   ar
    29    29    30   ar
    30    30    31   ar
    31    31    26   ar
    32     7     1   ar
    33    20    15   ar
    34    33    34    1
    35     9    13    1
    36    12    14    1
