@<TRIPOS>MOLECULE
*****
 37 39 0 0 0
SMALL
GASTEIGER

@<TRIPOS>ATOM
      1 C         138.9974  142.5618  161.7896 C.2     1  UNL1        0.2485
      2 O         137.9699  143.6538  161.7505 O.2     1  UNL1       -0.2726
      3 N         140.0110  142.4459  160.6899 N.am    1  UNL1       -0.2823
      4 H         140.6854  141.7292  160.7155 H       1  UNL1        0.1549
      5 C         137.7028  137.9840  161.7303 C.3     1  UNL1        0.0949
      6 C         138.0859  139.4317  161.6444 C.2     1  UNL1        0.2269
      7 O         137.9623  140.1642  160.3413 O.2     1  UNL1       -0.2748
      8 N         138.5925  140.1469  162.8617 N.am    1  UNL1       -0.2655
      9 C         138.7691  139.5490  164.2260 C.3     1  UNL1        0.1206
     10 C         139.2973  140.6181  165.1359 C.ar    1  UNL1       -0.0030
     11 C         139.6611  140.6081  166.5910 C.ar    1  UNL1        0.0155
     12 C         140.1748  141.8569  167.2442 C.ar    1  UNL1        0.1054
     13 C         140.3246  143.1156  166.4423 C.ar    1  UNL1        0.0181
     14 C         139.9607  143.1256  164.9872 C.ar    1  UNL1       -0.0011
     15 C         139.4471  141.8769  164.3340 C.ar    1  UNL1        0.0022
     16 C         139.0115  141.5856  162.9285 C.3     1  UNL1        0.1750
     17 S         140.5387  141.8469  168.6995 S.O2    1  UNL1        0.0104
     18 C         140.9026  141.8370  170.1546 C.3     1  UNL1        0.1816
     19 O         140.7106  140.3578  168.6463 O.2     1  UNL1       -0.1686
     20 O         140.3668  143.3361  168.7526 O.2     1  UNL1       -0.1686
     21 C         139.9969  143.4221  159.5510 C.ar    1  UNL1        0.0503
     22 C         140.7209  144.7298  159.6752 C.ar    1  UNL1        0.0144
     23 C         140.7068  145.7060  158.5364 C.ar    1  UNL1       -0.0002
     24 C         139.9687  145.3743  157.2734 C.ar    1  UNL1        0.0182
     25 C         139.2446  144.0665  157.1493 C.ar    1  UNL1       -0.0002
     26 C         139.2587  143.0904  158.2881 C.ar    1  UNL1        0.0144
     27 C         139.9545  146.3504  156.1345 C.3     1  UNL1        0.2827
     28 O         139.3713  147.3962  157.0380 O.3     1  UNL1       -0.3692
     29 H         139.2370  148.2167  156.5383 H       1  UNL1        0.2112
     30 C         139.9404  147.3265  154.9956 C.3     1  UNL1        0.4311
     31 F         139.9263  148.3025  153.8567 F       1  UNL1       -0.1669
     32 F         138.4410  147.2872  154.9805 F       1  UNL1       -0.1669
     33 F         140.8182  147.4198  154.9224 F       1  UNL1       -0.1669
     34 C         140.5378  145.3046  155.2311 C.3     1  UNL1        0.4311
     35 F         141.1209  144.2588  154.3276 F       1  UNL1       -0.1669
     36 F         139.8077  145.1565  154.7520 F       1  UNL1       -0.1669
     37 F         141.9571  145.1721  155.6980 F       1  UNL1       -0.1669
@<TRIPOS>BOND
     1     5     6    1
     2     6     7    2
     3     6     8   am
     4     8     9    1
     5     9    10    1
     6    10    11   ar
     7    11    12   ar
     8    12    17    1
     9    17    18    1
    10    17    19    2
    11    17    20    2
    12    12    13   ar
    13    13    14   ar
    14    14    15   ar
    15    15    16    1
    16    16     1    1
    17     1     2    2
    18     1     3   am
    19     3    21    1
    20    21    22   ar
    21    22    23   ar
    22    23    24   ar
    23    24    27    1
    24    27    28    1
    25    27    30    1
    26    30    31    1
    27    30    32    1
    28    30    33    1
    29    27    34    1
    30    34    35    1
    31    34    36    1
    32    34    37    1
    33    24    25   ar
    34    25    26   ar
    35    16     8    1
    36    26    21   ar
    37    15    10   ar
    38     3     4    1
    39    28    29    1
@<TRIPOS>MOLECULE
*****
 37 39 0 0 0
SMALL
GASTEIGER

@<TRIPOS>ATOM
      1 C         143.0885  141.2696  158.9935 C.2     1  UNL1        0.2485
      2 O         143.7522  141.1377  160.3321 O.2     1  UNL1       -0.2726
      3 N         141.7672  141.9704  158.8774 N.am    1  UNL1       -0.2823
      4 H         141.3315  142.0570  157.9988 H       1  UNL1        0.1549
      5 C         141.7123  137.5153  156.4154 C.3     1  UNL1        0.0949
      6 C         142.0611  138.6815  157.2918 C.2     1  UNL1        0.2269
      7 O         141.1976  139.0181  158.4712 O.2     1  UNL1       -0.2748
      8 N         143.2735  139.5112  156.9889 N.am    1  UNL1       -0.2655
      9 C         144.2265  139.2969  155.8505 C.3     1  UNL1        0.1206
     10 C         145.2878  140.3541  155.9292 C.ar    1  UNL1       -0.0030
     11 C         146.4863  140.6388  155.0734 C.ar    1  UNL1        0.0155
     12 C         147.3876  141.7911  155.4045 C.ar    1  UNL1        0.1054
     13 C         147.0905  142.6587  156.5915 C.ar    1  UNL1        0.0181
     14 C         145.8919  142.3741  157.4473 C.ar    1  UNL1       -0.0011
     15 C         144.9906  141.2218  157.1162 C.ar    1  UNL1        0.0022
     16 C         143.7457  140.7008  157.7711 C.3     1  UNL1        0.1750
     17 S         148.5862  142.0758  154.5487 S.O2    1  UNL1        0.0104
     18 C         149.7848  142.3605  153.6929 C.3     1  UNL1        0.1816
     19 O         147.6853  142.3898  153.3913 O.2     1  UNL1       -0.1686
     20 O         149.4872  141.7618  155.7061 O.2     1  UNL1       -0.1686
     21 C         141.1100  142.5392  160.0999 C.ar    1  UNL1        0.0503
     22 C         140.2975  141.6523  160.9960 C.ar    1  UNL1        0.0144
     23 C         139.6402  142.2211  162.2185 C.ar    1  UNL1       -0.0002
     24 C         139.7955  143.6769  162.5448 C.ar    1  UNL1        0.0182
     25 C         140.6080  144.5638  161.6487 C.ar    1  UNL1       -0.0002
     26 C         141.2653  143.9950  160.4262 C.ar    1  UNL1        0.0144
     27 C         139.1383  144.2458  163.7673 C.3     1  UNL1        0.2827
     28 O         138.0036  144.7472  162.9240 O.3     1  UNL1       -0.3692
     29 H         137.3583  145.2021  163.4876 H       1  UNL1        0.2112
     30 C         138.4811  144.8147  164.9898 C.3     1  UNL1        0.4311
     31 F         137.8240  145.3835  166.2123 F       1  UNL1       -0.1669
     32 F         137.3501  143.8417  164.8346 F       1  UNL1       -0.1669
     33 F         139.0967  145.4258  165.1689 F       1  UNL1       -0.1669
     34 C         140.2730  143.7444  164.6105 C.3     1  UNL1        0.4311
     35 F         141.4078  143.2431  165.4538 F       1  UNL1       -0.1669
     36 F         140.8793  144.3278  164.3335 F       1  UNL1       -0.1669
     37 F         139.6792  142.5977  165.3736 F       1  UNL1       -0.1669
@<TRIPOS>BOND
     1     5     6    1
     2     6     7    2
     3     6     8   am
     4     8     9    1
     5     9    10    1
     6    10    11   ar
     7    11    12   ar
     8    12    17    1
     9    17    18    1
    10    17    19    2
    11    17    20    2
    12    12    13   ar
    13    13    14   ar
    14    14    15   ar
    15    15    16    1
    16    16     1    1
    17     1     2    2
    18     1     3   am
    19     3    21    1
    20    21    22   ar
    21    22    23   ar
    22    23    24   ar
    23    24    27    1
    24    27    28    1
    25    27    30    1
    26    30    31    1
    27    30    32    1
    28    30    33    1
    29    27    34    1
    30    34    35    1
    31    34    36    1
    32    34    37    1
    33    24    25   ar
    34    25    26   ar
    35    16     8    1
    36    26    21   ar
    37    15    10   ar
    38     3     4    1
    39    28    29    1
@<TRIPOS>MOLECULE
*****
 37 39 0 0 0
SMALL
GASTEIGER

@<TRIPOS>ATOM
      1 C         142.5373  138.0093  158.1868 C.2     1  UNL1        0.2485
      2 O         143.7108  138.8960  157.8927 O.2     1  UNL1       -0.2726
      3 N         141.8808  138.0565  159.5348 N.am    1  UNL1       -0.2823
      4 H         141.1106  137.4745  159.7279 H       1  UNL1        0.1549
      5 C         138.8222  138.6485  155.2842 C.3     1  UNL1        0.0949
      6 C         139.9721  138.5436  156.2416 C.2     1  UNL1        0.2269
      7 O         140.2529  139.6613  157.2017 O.2     1  UNL1       -0.2748
      8 N         140.8411  137.3209  156.2390 N.am    1  UNL1       -0.2655
      9 C         140.6836  136.1292  155.3418 C.3     1  UNL1        0.1206
     10 C         141.7654  135.1471  155.6814 C.ar    1  UNL1       -0.0030
     11 C         142.1049  133.7959  155.1255 C.ar    1  UNL1        0.0155
     12 C         143.2705  133.0295  155.6768 C.ar    1  UNL1        0.1054
     13 C         144.0966  133.6143  156.7839 C.ar    1  UNL1        0.0181
     14 C         143.7570  134.9655  157.3397 C.ar    1  UNL1       -0.0011
     15 C         142.5914  135.7319  156.7885 C.ar    1  UNL1        0.0022
     16 C         142.0202  137.0754  157.1331 C.3     1  UNL1        0.1750
     17 S         143.6101  131.6783  155.1209 S.O2    1  UNL1        0.0104
     18 C         143.9497  130.3271  154.5651 C.3     1  UNL1        0.1816
     19 O         142.2397  131.5815  154.5189 O.2     1  UNL1       -0.1686
     20 O         144.9805  131.7751  155.7230 O.2     1  UNL1       -0.1686
     21 C         142.3980  138.9904  160.5886 C.ar    1  UNL1        0.0503
     22 C         143.5420  138.5733  161.4644 C.ar    1  UNL1        0.0144
     23 C         144.0592  139.5073  162.5182 C.ar    1  UNL1       -0.0002
     24 C         143.4321  140.8582  162.6960 C.ar    1  UNL1        0.0182
     25 C         142.2881  141.2753  161.8201 C.ar    1  UNL1       -0.0002
     26 C         141.7709  140.3414  160.7664 C.ar    1  UNL1        0.0144
     27 C         143.9492  141.7923  163.7497 C.3     1  UNL1        0.2827
     28 O         143.5034  140.8361  164.8161 O.3     1  UNL1       -0.3692
     29 H         143.7226  141.1995  165.6883 H       1  UNL1        0.2112
     30 C         144.4663  142.7263  164.8034 C.3     1  UNL1        0.4311
     31 F         144.9833  143.6604  165.8570 F       1  UNL1       -0.1669
     32 F         143.0598  143.0153  165.2374 F       1  UNL1       -0.1669
     33 F         145.3278  142.6242  164.6249 F       1  UNL1       -0.1669
     34 C         144.3950  142.7484  162.6834 C.3     1  UNL1        0.4311
     35 F         144.8407  143.7046  161.6170 F       1  UNL1       -0.1669
     36 F         143.7945  143.3790  162.8459 F       1  UNL1       -0.1669
     37 F         145.5499  142.0498  162.0291 F       1  UNL1       -0.1669
@<TRIPOS>BOND
     1     5     6    1
     2     6     7    2
     3     6     8   am
     4     8     9    1
     5     9    10    1
     6    10    11   ar
     7    11    12   ar
     8    12    17    1
     9    17    18    1
    10    17    19    2
    11    17    20    2
    12    12    13   ar
    13    13    14   ar
    14    14    15   ar
    15    15    16    1
    16    16     1    1
    17     1     2    2
    18     1     3   am
    19     3    21    1
    20    21    22   ar
    21    22    23   ar
    22    23    24   ar
    23    24    27    1
    24    27    28    1
    25    27    30    1
    26    30    31    1
    27    30    32    1
    28    30    33    1
    29    27    34    1
    30    34    35    1
    31    34    36    1
    32    34    37    1
    33    24    25   ar
    34    25    26   ar
    35    16     8    1
    36    26    21   ar
    37    15    10   ar
    38     3     4    1
    39    28    29    1
@<TRIPOS>MOLECULE
*****
 37 39 0 0 0
SMALL
GASTEIGER

@<TRIPOS>ATOM
      1 C         141.5832  142.7108  162.4195 C.2     1  UNL1        0.2485
      2 O         140.8155  141.4513  162.6918 O.2     1  UNL1       -0.2726
      3 N         142.1414  143.5102  163.5595 N.am    1  UNL1       -0.2823
      4 H         142.6453  144.3368  163.3808 H       1  UNL1        0.1549
      5 C         139.7285  146.5388  160.2882 C.3     1  UNL1        0.0949
      6 C         140.2601  145.3605  161.0492 C.2     1  UNL1        0.2269
      7 O         139.8671  145.1539  162.4819 O.2     1  UNL1       -0.2748
      8 N         141.1846  144.3889  160.3775 N.am    1  UNL1       -0.2655
      9 C         141.6633  144.4647  158.9579 C.3     1  UNL1        0.1206
     10 C         142.5673  143.2935  158.7104 C.ar    1  UNL1       -0.0030
     11 C         143.3280  142.8519  157.4954 C.ar    1  UNL1        0.0155
     12 C         144.1686  141.6107  157.5470 C.ar    1  UNL1        0.1054
     13 C         144.2486  140.8111  158.8136 C.ar    1  UNL1        0.0181
     14 C         143.4880  141.2528  160.0286 C.ar    1  UNL1       -0.0011
     15 C         142.6473  142.4940  159.9771 C.ar    1  UNL1        0.0022
     16 C         141.7928  143.1710  161.0073 C.3     1  UNL1        0.1750
     17 S         144.9293  141.1690  156.3319 S.O2    1  UNL1        0.0104
     18 C         145.6900  140.7273  155.1169 C.3     1  UNL1        0.1816
     19 O         144.8622  142.5633  155.7830 O.2     1  UNL1       -0.1686
     20 O         144.9964  139.7747  156.8808 O.2     1  UNL1       -0.1686
     21 C         141.9318  143.0500  164.9717 C.ar    1  UNL1        0.0503
     22 C         143.0686  142.4428  165.7392 C.ar    1  UNL1        0.0144
     23 C         142.8590  141.9826  167.1514 C.ar    1  UNL1       -0.0002
     24 C         141.5127  142.1296  167.7960 C.ar    1  UNL1        0.0182
     25 C         140.3759  142.7368  167.0285 C.ar    1  UNL1       -0.0002
     26 C         140.5855  143.1970  165.6163 C.ar    1  UNL1        0.0144
     27 C         141.3030  141.6694  169.2082 C.3     1  UNL1        0.2827
     28 O         141.5603  140.2535  168.7852 O.3     1  UNL1       -0.3692
     29 H         141.4879  139.6678  169.5550 H       1  UNL1        0.2112
     30 C         141.0933  141.2093  170.6205 C.3     1  UNL1        0.4311
     31 F         140.8836  140.7493  172.0327 F       1  UNL1       -0.1669
     32 F         139.8677  140.4573  170.1935 F       1  UNL1       -0.1669
     33 F         141.7965  141.6170  170.9724 F       1  UNL1       -0.1669
     34 C         141.0457  143.0853  169.6313 C.3     1  UNL1        0.4311
     35 F         140.7885  144.5013  170.0544 F       1  UNL1       -0.1669
     36 F         141.8652  143.3907  169.4906 F       1  UNL1       -0.1669
     37 F         139.5962  143.0913  170.0171 F       1  UNL1       -0.1669
@<TRIPOS>BOND
     1     5     6    1
     2     6     7    2
     3     6     8   am
     4     8     9    1
     5     9    10    1
     6    10    11   ar
     7    11    12   ar
     8    12    17    1
     9    17    18    1
    10    17    19    2
    11    17    20    2
    12    12    13   ar
    13    13    14   ar
    14    14    15   ar
    15    15    16    1
    16    16     1    1
    17     1     2    2
    18     1     3   am
    19     3    21    1
    20    21    22   ar
    21    22    23   ar
    22    23    24   ar
    23    24    27    1
    24    27    28    1
    25    27    30    1
    26    30    31    1
    27    30    32    1
    28    30    33    1
    29    27    34    1
    30    34    35    1
    31    34    36    1
    32    34    37    1
    33    24    25   ar
    34    25    26   ar
    35    16     8    1
    36    26    21   ar
    37    15    10   ar
    38     3     4    1
    39    28    29    1
@<TRIPOS>MOLECULE
*****
 37 39 0 0 0
SMALL
GASTEIGER

@<TRIPOS>ATOM
      1 C         141.5649  139.0184  158.6439 C.2     1  UNL1        0.2485
      2 O         142.2950  138.0858  159.5642 O.2     1  UNL1       -0.2726
      3 N         140.3810  139.7917  159.1444 N.am    1  UNL1       -0.2823
      4 H         139.9017  140.4038  158.5404 H       1  UNL1        0.1549
      5 C         139.4159  137.4555  154.6974 C.3     1  UNL1        0.0949
      6 C         140.0126  137.9050  155.9981 C.2     1  UNL1        0.2269
      7 O         139.3169  137.5933  157.2899 O.2     1  UNL1       -0.2748
      8 N         141.3051  138.6661  156.0070 N.am    1  UNL1       -0.2655
      9 C         142.1111  139.0492  154.8013 C.3     1  UNL1        0.1206
     10 C         143.3227  139.7977  155.2722 C.ar    1  UNL1       -0.0030
     11 C         144.4706  140.4171  154.5315 C.ar    1  UNL1        0.0155
     12 C         145.5613  141.1160  155.2875 C.ar    1  UNL1        0.1054
     13 C         145.5041  141.1956  156.7843 C.ar    1  UNL1        0.0181
     14 C         144.3563  140.5762  157.5251 C.ar    1  UNL1       -0.0011
     15 C         143.2655  139.8773  156.7690 C.ar    1  UNL1        0.0022
     16 C         142.0186  139.1779  157.2231 C.3     1  UNL1        0.1750
     17 S         146.7092  141.7355  154.5468 S.O2    1  UNL1        0.0104
     18 C         147.8571  142.3548  153.8061 C.3     1  UNL1        0.1816
     19 O         147.4692  141.8657  155.8334 O.2     1  UNL1       -0.1686
     20 O         145.9492  141.6053  153.2602 O.2     1  UNL1       -0.1686
     21 C         139.9272  139.6322  160.5653 C.ar    1  UNL1        0.0503
     22 C         140.6395  140.3604  161.6663 C.ar    1  UNL1        0.0144
     23 C         140.1858  140.2009  163.0871 C.ar    1  UNL1       -0.0002
     24 C         139.0198  139.3131  163.4068 C.ar    1  UNL1        0.0182
     25 C         138.3075  138.5849  162.3058 C.ar    1  UNL1       -0.0002
     26 C         138.7613  138.7444  160.8849 C.ar    1  UNL1        0.0144
     27 C         138.5660  139.1536  164.8276 C.3     1  UNL1        0.2827
     28 O         137.6438  140.3253  164.6647 O.3     1  UNL1       -0.3692
     29 H         137.1683  140.4805  165.4959 H       1  UNL1        0.2112
     30 C         138.1123  138.9939  166.2484 C.3     1  UNL1        0.4311
     31 F         137.6585  138.8343  167.6692 F       1  UNL1       -0.1669
     32 F         138.7943  140.2799  166.6107 F       1  UNL1       -0.1669
     33 F         137.6799  138.2288  166.1384 F       1  UNL1       -0.1669
     34 C         139.4883  137.9818  164.9905 C.3     1  UNL1        0.4311
     35 F         140.4105  136.8100  165.1533 F       1  UNL1       -0.1669
     36 F         138.9866  137.3895  164.5637 F       1  UNL1       -0.1669
     37 F         140.6517  138.5392  165.7558 F       1  UNL1       -0.1669
@<TRIPOS>BOND
     1     5     6    1
     2     6     7    2
     3     6     8   am
     4     8     9    1
     5     9    10    1
     6    10    11   ar
     7    11    12   ar
     8    12    17    1
     9    17    18    1
    10    17    19    2
    11    17    20    2
    12    12    13   ar
    13    13    14   ar
    14    14    15   ar
    15    15    16    1
    16    16     1    1
    17     1     2    2
    18     1     3   am
    19     3    21    1
    20    21    22   ar
    21    22    23   ar
    22    23    24   ar
    23    24    27    1
    24    27    28    1
    25    27    30    1
    26    30    31    1
    27    30    32    1
    28    30    33    1
    29    27    34    1
    30    34    35    1
    31    34    36    1
    32    34    37    1
    33    24    25   ar
    34    25    26   ar
    35    16     8    1
    36    26    21   ar
    37    15    10   ar
    38     3     4    1
    39    28    29    1
@<TRIPOS>MOLECULE
*****
 37 39 0 0 0
SMALL
GASTEIGER

@<TRIPOS>ATOM
      1 C         141.9390  142.3111  161.9910 C.2     1  UNL1        0.2485
      2 O         143.0370  143.1818  162.5258 O.2     1  UNL1       -0.2726
      3 N         141.0429  141.5680  162.9372 N.am    1  UNL1       -0.2823
      4 H         140.3222  140.9965  162.5862 H       1  UNL1        0.1549
      5 C         142.7454  138.5073  159.2494 C.3     1  UNL1        0.0949
      6 C         142.5243  139.6481  160.1978 C.2     1  UNL1        0.2269
      7 O         142.8218  139.4778  161.6581 O.2     1  UNL1       -0.2748
      8 N         142.0059  140.9593  159.6860 N.am    1  UNL1       -0.2655
      9 C         141.6655  141.2767  158.2600 C.3     1  UNL1        0.1206
     10 C         141.1860  142.6969  158.2029 C.ar    1  UNL1       -0.0030
     11 C         140.7150  143.5522  157.0643 C.ar    1  UNL1        0.0155
     12 C         140.2880  144.9679  157.3164 C.ar    1  UNL1        0.1054
     13 C         140.3321  145.5282  158.7071 C.ar    1  UNL1        0.0181
     14 C         140.8032  144.6729  159.8457 C.ar    1  UNL1       -0.0011
     15 C         141.2301  143.2572  159.5936 C.ar    1  UNL1        0.0022
     16 C         141.7368  142.1834  160.5102 C.3     1  UNL1        0.1750
     17 S         139.8170  145.8233  156.1778 S.O2    1  UNL1        0.0104
     18 C         139.3459  146.6787  155.0392 C.3     1  UNL1        0.1816
     19 O         140.0734  144.6946  155.2237 O.2     1  UNL1       -0.1686
     20 O         139.5605  146.9520  157.1318 O.2     1  UNL1       -0.1686
     21 C         141.2451  141.6958  164.4180 C.ar    1  UNL1        0.0503
     22 C         142.2967  140.8758  165.1049 C.ar    1  UNL1        0.0144
     23 C         142.4988  141.0036  166.5857 C.ar    1  UNL1       -0.0002
     24 C         141.6493  141.9513  167.3795 C.ar    1  UNL1        0.0182
     25 C         140.5977  142.7712  166.6926 C.ar    1  UNL1       -0.0002
     26 C         140.3956  142.6435  165.2118 C.ar    1  UNL1        0.0144
     27 C         141.8514  142.0791  168.8604 C.3     1  UNL1        0.2827
     28 O         143.2128  142.6630  168.6243 O.3     1  UNL1       -0.3692
     29 H         143.6294  142.8668  169.4763 H       1  UNL1        0.2112
     30 C         142.0534  142.2069  170.3412 C.3     1  UNL1        0.4311
     31 F         142.2554  142.3347  171.8221 F       1  UNL1       -0.1669
     32 F         142.0588  143.7013  170.2116 F       1  UNL1       -0.1669
     33 F         142.0647  141.3403  170.5239 F       1  UNL1       -0.1669
     34 C         140.4900  141.4952  169.0965 C.3     1  UNL1        0.4311
     35 F         139.1286  140.9113  169.3325 F       1  UNL1       -0.1669
     36 F         140.6712  140.6782  168.8063 F       1  UNL1       -0.1669
     37 F         139.6984  142.6369  169.6621 F       1  UNL1       -0.1669
@<TRIPOS>BOND
     1     5     6    1
     2     6     7    2
     3     6     8   am
     4     8     9    1
     5     9    10    1
     6    10    11   ar
     7    11    12   ar
     8    12    17    1
     9    17    18    1
    10    17    19    2
    11    17    20    2
    12    12    13   ar
    13    13    14   ar
    14    14    15   ar
    15    15    16    1
    16    16     1    1
    17     1     2    2
    18     1     3   am
    19     3    21    1
    20    21    22   ar
    21    22    23   ar
    22    23    24   ar
    23    24    27    1
    24    27    28    1
    25    27    30    1
    26    30    31    1
    27    30    32    1
    28    30    33    1
    29    27    34    1
    30    34    35    1
    31    34    36    1
    32    34    37    1
    33    24    25   ar
    34    25    26   ar
    35    16     8    1
    36    26    21   ar
    37    15    10   ar
    38     3     4    1
    39    28    29    1
@<TRIPOS>MOLECULE
*****
 37 39 0 0 0
SMALL
GASTEIGER

@<TRIPOS>ATOM
      1 C         142.6402  140.6075  158.8908 C.2     1  UNL1        0.2485
      2 O         142.9733  140.0630  160.2481 O.2     1  UNL1       -0.2726
      3 N         141.6859  141.7572  158.7574 N.am    1  UNL1       -0.2823
      4 H         141.4672  142.1146  157.8666 H       1  UNL1        0.1549
      5 C         146.3690  142.2114  156.4092 C.3     1  UNL1        0.0949
      6 C         145.2056  141.7902  157.2571 C.2     1  UNL1        0.2269
      7 O         144.8075  142.6132  158.4462 O.2     1  UNL1       -0.2748
      8 N         144.4404  140.5461  156.9158 N.am    1  UNL1       -0.2655
      9 C         144.7199  139.6271  155.7638 C.3     1  UNL1        0.1206
     10 C         143.7135  138.5155  155.8026 C.ar    1  UNL1       -0.0030
     11 C         143.5016  137.3221  154.9191 C.ar    1  UNL1        0.0155
     12 C         142.3881  136.3606  155.2116 C.ar    1  UNL1        0.1054
     13 C         141.4865  136.5926  156.3878 C.ar    1  UNL1        0.0181
     14 C         141.6984  137.7860  157.2713 C.ar    1  UNL1       -0.0011
     15 C         142.8120  138.7475  156.9788 C.ar    1  UNL1        0.0022
     16 C         143.2612  140.0024  157.6668 C.3     1  UNL1        0.1750
     17 S         142.1762  135.1671  154.3280 S.O2    1  UNL1        0.0104
     18 C         141.9642  133.9736  153.4445 C.3     1  UNL1        0.1816
     19 O         142.2166  136.0546  153.1195 O.2     1  UNL1       -0.1686
     20 O         142.1357  134.2796  155.5366 O.2     1  UNL1       -0.1686
     21 C         141.0649  142.3623  159.9815 C.ar    1  UNL1        0.0503
     22 C         141.5424  143.6919  160.4856 C.ar    1  UNL1        0.0144
     23 C         140.9213  144.2969  161.7096 C.ar    1  UNL1       -0.0002
     24 C         139.8229  143.5723  162.4295 C.ar    1  UNL1        0.0182
     25 C         139.3454  142.2427  161.9254 C.ar    1  UNL1       -0.0002
     26 C         139.9664  141.6376  160.7013 C.ar    1  UNL1        0.0144
     27 C         139.2018  144.1773  163.6535 C.3     1  UNL1        0.2827
     28 O         138.0786  144.7156  162.8177 O.3     1  UNL1       -0.3692
     29 H         137.4579  145.2005  163.3838 H       1  UNL1        0.2112
     30 C         138.5808  144.7823  164.8776 C.3     1  UNL1        0.4311
     31 F         137.9598  145.3872  166.1017 F       1  UNL1       -0.1669
     32 F         137.4708  143.7754  164.8121 F       1  UNL1       -0.1669
     33 F         139.1865  145.4159  165.0042 F       1  UNL1       -0.1669
     34 C         140.3250  143.6390  164.4894 C.3     1  UNL1        0.4311
     35 F         141.4481  143.1006  165.3253 F       1  UNL1       -0.1669
     36 F         139.9373  142.8741  164.7115 F       1  UNL1       -0.1669
     37 F         141.3724  144.7107  164.4236 F       1  UNL1       -0.1669
@<TRIPOS>BOND
     1     5     6    1
     2     6     7    2
     3     6     8   am
     4     8     9    1
     5     9    10    1
     6    10    11   ar
     7    11    12   ar
     8    12    17    1
     9    17    18    1
    10    17    19    2
    11    17    20    2
    12    12    13   ar
    13    13    14   ar
    14    14    15   ar
    15    15    16    1
    16    16     1    1
    17     1     2    2
    18     1     3   am
    19     3    21    1
    20    21    22   ar
    21    22    23   ar
    22    23    24   ar
    23    24    27    1
    24    27    28    1
    25    27    30    1
    26    30    31    1
    27    30    32    1
    28    30    33    1
    29    27    34    1
    30    34    35    1
    31    34    36    1
    32    34    37    1
    33    24    25   ar
    34    25    26   ar
    35    16     8    1
    36    26    21   ar
    37    15    10   ar
    38     3     4    1
    39    28    29    1
@<TRIPOS>MOLECULE
*****
 37 39 0 0 0
SMALL
GASTEIGER

@<TRIPOS>ATOM
      1 C         142.5519  138.1188  157.6257 C.2     1  UNL1        0.2485
      2 O         141.4087  138.1471  158.5963 O.2     1  UNL1       -0.2726
      3 N         143.7242  139.0341  157.8208 N.am    1  UNL1       -0.2823
      4 H         144.4746  139.0156  157.1838 H       1  UNL1        0.1549
      5 C         141.0812  139.0016  153.1880 C.3     1  UNL1        0.0949
      6 C         141.5205  138.8253  154.6113 C.2     1  UNL1        0.2269
      7 O         141.4313  139.9742  155.5715 O.2     1  UNL1       -0.2748
      8 N         142.0488  137.5000  155.0744 N.am    1  UNL1       -0.2655
      9 C         142.1959  136.2668  154.2333 C.3     1  UNL1        0.1206
     10 C         142.7609  135.1798  155.0990 C.ar    1  UNL1       -0.0030
     11 C         143.1174  133.7514  154.8120 C.ar    1  UNL1        0.0155
     12 C         143.6760  132.8845  155.9012 C.ar    1  UNL1        0.1054
     13 C         143.8782  133.4460  157.2773 C.ar    1  UNL1        0.0181
     14 C         143.5216  134.8744  157.5644 C.ar    1  UNL1       -0.0011
     15 C         142.9630  135.7413  156.4752 C.ar    1  UNL1        0.0022
     16 C         142.5229  137.1753  156.4600 C.3     1  UNL1        0.1750
     17 S         144.0326  131.4560  155.6142 S.O2    1  UNL1        0.0104
     18 C         144.3891  130.0275  155.3272 C.3     1  UNL1        0.1816
     19 O         145.4080  131.6884  156.1657 O.2     1  UNL1       -0.1686
     20 O         142.6572  131.2235  155.0626 O.2     1  UNL1       -0.1686
     21 C         143.7532  139.9777  158.9866 C.ar    1  UNL1        0.0503
     22 C         143.7208  141.4591  158.7534 C.ar    1  UNL1        0.0144
     23 C         143.7498  142.4026  159.9191 C.ar    1  UNL1       -0.0002
     24 C         143.8111  141.8646  161.3180 C.ar    1  UNL1        0.0182
     25 C         143.8434  140.3832  161.5511 C.ar    1  UNL1       -0.0002
     26 C         143.8145  139.4397  160.3854 C.ar    1  UNL1        0.0144
     27 C         143.8400  142.8081  162.4838 C.3     1  UNL1        0.2827
     28 O         142.5836  143.4601  161.9875 O.3     1  UNL1       -0.3692
     29 H         142.3305  144.1758  162.5913 H       1  UNL1        0.2112
     30 C         143.8691  143.7515  163.6496 C.3     1  UNL1        0.4311
     31 F         143.8981  144.6950  164.8154 F       1  UNL1       -0.1669
     32 F         144.4493  144.8197  162.7708 F       1  UNL1       -0.1669
     33 F         143.5311  143.1935  164.2486 F       1  UNL1       -0.1669
     34 C         145.0965  142.1562  162.9801 C.3     1  UNL1        0.4311
     35 F         146.3530  141.5042  163.4763 F       1  UNL1       -0.1669
     36 F         145.6489  142.5276  162.3957 F       1  UNL1       -0.1669
     37 F         144.6358  141.3059  164.1267 F       1  UNL1       -0.1669
@<TRIPOS>BOND
     1     5     6    1
     2     6     7    2
     3     6     8   am
     4     8     9    1
     5     9    10    1
     6    10    11   ar
     7    11    12   ar
     8    12    17    1
     9    17    18    1
    10    17    19    2
    11    17    20    2
    12    12    13   ar
    13    13    14   ar
    14    14    15   ar
    15    15    16    1
    16    16     1    1
    17     1     2    2
    18     1     3   am
    19     3    21    1
    20    21    22   ar
    21    22    23   ar
    22    23    24   ar
    23    24    27    1
    24    27    28    1
    25    27    30    1
    26    30    31    1
    27    30    32    1
    28    30    33    1
    29    27    34    1
    30    34    35    1
    31    34    36    1
    32    34    37    1
    33    24    25   ar
    34    25    26   ar
    35    16     8    1
    36    26    21   ar
    37    15    10   ar
    38     3     4    1
    39    28    29    1
@<TRIPOS>MOLECULE
*****
 37 39 0 0 0
SMALL
GASTEIGER

@<TRIPOS>ATOM
      1 C         141.9135  142.4265  162.7852 C.2     1  UNL1        0.2485
      2 O         142.1797  140.9966  162.4188 O.2     1  UNL1       -0.2726
      3 N         142.4526  143.5333  161.9281 N.am    1  UNL1       -0.2823
      4 H         142.2779  144.4718  162.1686 H       1  UNL1        0.1549
      5 C         137.5746  144.3666  162.9992 C.3     1  UNL1        0.0949
      6 C         138.9358  143.7612  162.8245 C.2     1  UNL1        0.2269
      7 O         139.4933  143.5538  161.4475 O.2     1  UNL1       -0.2748
      8 N         139.7396  143.3633  164.0268 N.am    1  UNL1       -0.2655
      9 C         139.3158  143.5090  165.4583 C.3     1  UNL1        0.1206
     10 C         140.4226  142.9856  166.3250 C.ar    1  UNL1       -0.0030
     11 C         140.5648  142.8756  167.8142 C.ar    1  UNL1        0.0155
     12 C         141.8148  142.2964  168.4074 C.ar    1  UNL1        0.1054
     13 C         142.9225  141.8272  167.5116 C.ar    1  UNL1        0.0181
     14 C         142.7804  141.9371  166.0224 C.ar    1  UNL1       -0.0011
     15 C         141.5304  142.5164  165.4291 C.ar    1  UNL1        0.0022
     16 C         141.1083  142.7498  164.0088 C.3     1  UNL1        0.1750
     17 S         141.9570  142.1864  169.8967 S.O2    1  UNL1        0.0104
     18 C         142.0992  142.0763  171.3858 C.3     1  UNL1        0.1816
     19 O         141.4189  143.5780  170.0509 O.2     1  UNL1       -0.1686
     20 O         142.4951  140.7948  169.7424 O.2     1  UNL1       -0.1686
     21 C         143.2578  143.2099  160.7045 C.ar    1  UNL1        0.0503
     22 C         144.6582  142.6907  160.8438 C.ar    1  UNL1        0.0144
     23 C         145.4634  142.3674  159.6203 C.ar    1  UNL1       -0.0002
     24 C         144.8682  142.5633  158.2575 C.ar    1  UNL1        0.0182
     25 C         143.4678  143.0825  158.1182 C.ar    1  UNL1       -0.0002
     26 C         142.6626  143.4059  159.3417 C.ar    1  UNL1        0.0144
     27 C         145.6733  142.2400  157.0338 C.3     1  UNL1        0.2827
     28 O         146.7415  143.1916  157.4851 O.3     1  UNL1       -0.3692
     29 H         147.4626  143.1995  156.8364 H       1  UNL1        0.2112
     30 C         146.4784  141.9167  155.8102 C.3     1  UNL1        0.4311
     31 F         147.2835  141.5933  154.5865 F       1  UNL1       -0.1669
     32 F         146.2365  143.3009  155.2852 F       1  UNL1       -0.1669
     33 F         146.6782  141.0822  156.0297 F       1  UNL1       -0.1669
     34 C         144.6052  141.2885  156.5825 C.3     1  UNL1        0.4311
     35 F         143.5370  140.3370  156.1311 F       1  UNL1       -0.1669
     36 F         144.3360  141.7543  155.8788 F       1  UNL1       -0.1669
     37 F         144.6650  140.1738  157.5844 F       1  UNL1       -0.1669
@<TRIPOS>BOND
     1     5     6    1
     2     6     7    2
     3     6     8   am
     4     8     9    1
     5     9    10    1
     6    10    11   ar
     7    11    12   ar
     8    12    17    1
     9    17    18    1
    10    17    19    2
    11    17    20    2
    12    12    13   ar
    13    13    14   ar
    14    14    15   ar
    15    15    16    1
    16    16     1    1
    17     1     2    2
    18     1     3   am
    19     3    21    1
    20    21    22   ar
    21    22    23   ar
    22    23    24   ar
    23    24    27    1
    24    27    28    1
    25    27    30    1
    26    30    31    1
    27    30    32    1
    28    30    33    1
    29    27    34    1
    30    34    35    1
    31    34    36    1
    32    34    37    1
    33    24    25   ar
    34    25    26   ar
    35    16     8    1
    36    26    21   ar
    37    15    10   ar
    38     3     4    1
    39    28    29    1
