@<TRIPOS>MOLECULE
*****
 35 38 0 0 0
SMALL
GASTEIGER

@<TRIPOS>ATOM
      1 C         139.0435  139.8559  164.8357 C.ar    1  UNL1        0.0208
      2 C         140.4750  139.7949  165.2797 C.ar    1  UNL1        0.0219
      3 C         140.4958  139.8028  166.7795 C.ar    1  UNL1        0.0961
      4 C         141.6232  139.7585  167.7679 C.ar    1  UNL1        0.0685
      5 C         141.3320  139.7800  169.2392 C.ar    1  UNL1        0.0885
      6 C         139.9134  139.8458  169.7221 C.ar    1  UNL1        0.1263
      7 N         138.7860  139.8901  168.7337 N.ar    1  UNL1       -0.1633
      8 N         139.0771  139.8686  167.2624 N.ar    1  UNL1       -0.2270
      9 C         138.1796  139.9014  166.0611 C.ar    1  UNL1        0.1004
     10 C         137.9355  141.1838  161.2637 C.ar    1  UNL1        0.1387
     11 C         137.5950  139.8953  160.5753 C.ar    1  UNL1        0.0369
     12 C         137.7373  138.5937  161.3071 C.ar    1  UNL1        0.0031
     13 C         138.2202  138.5806  162.7272 C.ar    1  UNL1        0.0002
     14 C         138.5607  139.8691  163.4156 C.ar    1  UNL1        0.0046
     15 C         138.4183  141.1707  162.6838 C.ar    1  UNL1        0.0369
     16 C         138.5094  142.6967  159.2311 C.3     1  UNL1        0.2525
     17 O         137.7931  142.4854  160.5319 O.3     1  UNL1       -0.4714
     18 C         142.4595  139.7357  170.2277 C.2     1  UNL1        0.2456
     19 N         142.7067  140.9033  171.1362 N.am    1  UNL1       -0.3252
     20 O         143.3397  138.5237  170.3075 O.2     1  UNL1       -0.2703
     21 H         142.1290  141.6988  171.0838 H       1  UNL1        0.1453
     22 H         143.4467  140.8743  171.7849 H       1  UNL1        0.1453
     23 N         143.0419  139.6926  167.2850 N.pl3   1  UNL1       -0.3327
     24 H         143.6691  139.0487  167.6864 H       1  UNL1        0.1468
     25 C         143.5048  140.6080  166.1905 C.3     1  UNL1        0.0702
     26 C         143.3686  142.1016  166.1738 C.3     1  UNL1        0.0208
     27 C         143.9648  142.6072  164.8936 C.3     1  UNL1        0.0160
     28 C         144.4694  141.4259  164.1190 C.3     1  UNL1        0.0404
     29 C         144.8770  142.4597  163.1115 C.3     1  UNL1        0.0156
     30 N         145.0592  140.4607  163.1339 N.3     1  UNL1       -0.3231
     31 C         144.1851  140.1903  164.9206 C.3     1  UNL1        0.0282
     32 C         144.8344  139.4834  163.7679 C.3     1  UNL1        0.0029
     33 C         144.0365  138.8070  165.4812 C.3     1  UNL1        0.0029
     34 H         145.4159  140.9734  162.3275 H       1  UNL1        0.1188
     35 H         144.3404  139.8045  162.8288 H       1  UNL1        0.1188
@<TRIPOS>BOND
     1    16    17    1
     2    17    10    1
     3    10    11   ar
     4    11    12   ar
     5    12    13   ar
     6    13    14   ar
     7    14     1    1
     8     1     2   ar
     9     2     3   ar
    10     3     4   ar
    11     4    23    1
    12    25    23    1
    13    25    26    1
    14    26    27    1
    15    27    28    1
    16    28    29    1
    17    28    30    1
    18    28    31    1
    19    31    32    1
    20    31    33    1
    21     4     5   ar
    22     5    18    1
    23    18    19   am
    24    18    20    2
    25     5     6   ar
    26     6     7   ar
    27     7     8   ar
    28     8     9   ar
    29    14    15   ar
    30    15    10   ar
    31     9     1   ar
    32     8     3   ar
    33    31    25    1
    34    23    24    1
    35    30    34    1
    36    30    35    1
    37    19    21    1
    38    19    22    1
@<TRIPOS>MOLECULE
*****
 35 38 0 0 0
SMALL
GASTEIGER

@<TRIPOS>ATOM
      1 C         139.4058  140.1155  166.0354 C.ar    1  UNL1        0.0208
      2 C         139.4625  141.0138  164.8355 C.ar    1  UNL1        0.0219
      3 C         139.1958  140.1788  163.6183 C.ar    1  UNL1        0.0961
      4 C         139.1260  140.5236  162.1602 C.ar    1  UNL1        0.0685
      5 C         138.8348  139.4540  161.1497 C.ar    1  UNL1        0.0885
      6 C         138.6133  138.0396  161.5973 C.ar    1  UNL1        0.1263
      7 N         138.6830  137.6948  163.0554 N.ar    1  UNL1       -0.1633
      8 N         138.9743  138.7644  164.0659 N.ar    1  UNL1       -0.2270
      9 C         139.1041  138.7252  165.5598 C.ar    1  UNL1        0.1004
     10 C         140.7605  142.0778  169.2078 C.ar    1  UNL1        0.1387
     11 C         140.0310  141.3707  170.3114 C.ar    1  UNL1        0.0369
     12 C         139.0931  140.2452  169.9896 C.ar    1  UNL1        0.0031
     13 C         138.8848  139.8268  168.5643 C.ar    1  UNL1        0.0002
     14 C         139.6142  140.5339  167.4607 C.ar    1  UNL1        0.0046
     15 C         140.5521  141.6595  167.7824 C.ar    1  UNL1        0.0369
     16 C         142.9505  142.9361  170.3111 C.3     1  UNL1        0.2525
     17 O         141.6984  143.2033  169.5295 O.3     1  UNL1       -0.4714
     18 C         138.7650  139.7988  159.6914 C.2     1  UNL1        0.2456
     19 N         139.2861  138.8350  158.6670 N.am    1  UNL1       -0.3252
     20 O         138.1741  141.1075  159.2577 O.2     1  UNL1       -0.2703
     21 H         139.6740  137.9760  158.9517 H       1  UNL1        0.1453
     22 H         139.2404  139.0613  157.7100 H       1  UNL1        0.1453
     23 N         139.3475  141.9381  161.7125 N.pl3   1  UNL1       -0.3327
     24 H         138.6738  142.3887  161.1537 H       1  UNL1        0.1468
     25 C         140.5955  142.6657  162.1162 C.3     1  UNL1        0.0702
     26 C         141.9785  142.0867  162.1607 C.3     1  UNL1        0.0208
     27 C         142.9173  143.1633  162.6183 C.3     1  UNL1        0.0160
     28 C         142.1146  144.4078  162.8566 C.3     1  UNL1        0.0404
     29 C         143.4396  145.0014  163.2332 C.3     1  UNL1        0.0156
     30 N         141.5889  145.7764  163.1736 N.3     1  UNL1       -0.3231
     31 C         140.6796  144.1003  162.5462 C.3     1  UNL1        0.0282
     32 C         140.4539  145.5332  162.9281 C.3     1  UNL1        0.0029
     33 C         139.1975  144.0924  162.3157 C.3     1  UNL1        0.0029
     34 H         142.3593  146.3770  163.4668 H       1  UNL1        0.1188
     35 H         140.9031  145.7114  163.9258 H       1  UNL1        0.1188
@<TRIPOS>BOND
     1    16    17    1
     2    17    10    1
     3    10    11   ar
     4    11    12   ar
     5    12    13   ar
     6    13    14   ar
     7    14     1    1
     8     1     2   ar
     9     2     3   ar
    10     3     4   ar
    11     4    23    1
    12    25    23    1
    13    25    26    1
    14    26    27    1
    15    27    28    1
    16    28    29    1
    17    28    30    1
    18    28    31    1
    19    31    32    1
    20    31    33    1
    21     4     5   ar
    22     5    18    1
    23    18    19   am
    24    18    20    2
    25     5     6   ar
    26     6     7   ar
    27     7     8   ar
    28     8     9   ar
    29    14    15   ar
    30    15    10   ar
    31     9     1   ar
    32     8     3   ar
    33    31    25    1
    34    23    24    1
    35    30    34    1
    36    30    35    1
    37    19    21    1
    38    19    22    1
@<TRIPOS>MOLECULE
*****
 35 38 0 0 0
SMALL
GASTEIGER

@<TRIPOS>ATOM
      1 C         141.3860  140.6621  166.4069 C.ar    1  UNL1        0.0208
      2 C         140.8223  140.9286  165.0427 C.ar    1  UNL1        0.0219
      3 C         141.7192  140.2736  164.0345 C.ar    1  UNL1        0.0961
      4 C         141.6623  140.2017  162.5373 C.ar    1  UNL1        0.0685
      5 C         142.7235  139.4585  161.7813 C.ar    1  UNL1        0.0885
      6 C         143.8416  138.7873  162.5224 C.ar    1  UNL1        0.1263
      7 N         143.8985  138.8592  164.0195 N.ar    1  UNL1       -0.1633
      8 N         142.8373  139.6023  164.7756 N.ar    1  UNL1       -0.2270
      9 C         142.6314  139.8424  166.2419 C.ar    1  UNL1        0.1004
     10 C         139.4990  140.6390  169.8981 C.ar    1  UNL1        0.1387
     11 C         139.6467  142.0739  170.3097 C.ar    1  UNL1        0.0369
     12 C         140.3741  143.0381  169.4203 C.ar    1  UNL1        0.0031
     13 C         140.9539  142.5675  168.1194 C.ar    1  UNL1        0.0002
     14 C         140.8062  141.1326  167.7078 C.ar    1  UNL1        0.0046
     15 C         140.0788  140.1684  168.5972 C.ar    1  UNL1        0.0369
     16 C         137.2960  139.4650  170.6181 C.3     1  UNL1        0.2525
     17 O         138.7716  139.6747  170.7875 O.3     1  UNL1       -0.4714
     18 C         142.6666  139.3866  160.2840 C.2     1  UNL1        0.2456
     19 N         143.9209  139.5475  159.4772 N.am    1  UNL1       -0.3252
     20 O         141.3554  139.1539  159.5936 O.2     1  UNL1       -0.2703
     21 H         144.7815  139.7002  159.9303 H       1  UNL1        0.1453
     22 H         143.8835  139.5003  158.4945 H       1  UNL1        0.1453
     23 N         140.5442  140.8730  161.7961 N.pl3   1  UNL1       -0.3327
     24 H         139.8537  140.3308  161.3506 H       1  UNL1        0.1468
     25 C         140.4783  142.3702  161.7337 C.3     1  UNL1        0.0702
     26 C         141.5902  143.2849  161.3131 C.3     1  UNL1        0.0208
     27 C         141.0881  144.6956  161.4005 C.3     1  UNL1        0.0160
     28 C         139.6658  144.6528  161.8750 C.3     1  UNL1        0.0404
     29 C         139.7489  146.1463  161.7634 C.3     1  UNL1        0.0156
     30 N         138.2609  144.9222  162.3262 N.3     1  UNL1       -0.3231
     31 C         139.2889  143.2156  162.0810 C.3     1  UNL1        0.0282
     32 C         137.9627  143.7855  162.4891 C.3     1  UNL1        0.0029
     33 C         138.6348  141.8976  162.3722 C.3     1  UNL1        0.0029
     34 H         138.0907  145.9279  162.3261 H       1  UNL1        0.1188
     35 H         138.1303  144.5554  163.2690 H       1  UNL1        0.1188
@<TRIPOS>BOND
     1    16    17    1
     2    17    10    1
     3    10    11   ar
     4    11    12   ar
     5    12    13   ar
     6    13    14   ar
     7    14     1    1
     8     1     2   ar
     9     2     3   ar
    10     3     4   ar
    11     4    23    1
    12    25    23    1
    13    25    26    1
    14    26    27    1
    15    27    28    1
    16    28    29    1
    17    28    30    1
    18    28    31    1
    19    31    32    1
    20    31    33    1
    21     4     5   ar
    22     5    18    1
    23    18    19   am
    24    18    20    2
    25     5     6   ar
    26     6     7   ar
    27     7     8   ar
    28     8     9   ar
    29    14    15   ar
    30    15    10   ar
    31     9     1   ar
    32     8     3   ar
    33    31    25    1
    34    23    24    1
    35    30    34    1
    36    30    35    1
    37    19    21    1
    38    19    22    1
@<TRIPOS>MOLECULE
*****
 35 38 0 0 0
SMALL
GASTEIGER

@<TRIPOS>ATOM
      1 C         142.6419  139.1865  163.6817 C.ar    1  UNL1        0.0208
      2 C         141.4286  139.7704  164.3425 C.ar    1  UNL1        0.0219
      3 C         141.6271  139.6931  165.8273 C.ar    1  UNL1        0.0961
      4 C         140.7639  140.1163  166.9787 C.ar    1  UNL1        0.0685
      5 C         141.2369  139.9079  168.3869 C.ar    1  UNL1        0.0885
      6 C         142.5729  139.2763  168.6437 C.ar    1  UNL1        0.1263
      7 N         143.4361  138.8531  167.4923 N.ar    1  UNL1       -0.1633
      8 N         142.9632  139.0615  166.0841 N.ar    1  UNL1       -0.2270
      9 C         143.5904  138.7483  164.7580 C.ar    1  UNL1        0.1004
     10 C         143.6134  140.1089  159.9460 C.ar    1  UNL1        0.1387
     11 C         143.3180  138.8143  159.2483 C.ar    1  UNL1        0.0369
     12 C         142.7973  137.6437  160.0284 C.ar    1  UNL1        0.0031
     13 C         142.5720  137.7678  161.5062 C.ar    1  UNL1        0.0002
     14 C         142.8673  139.0624  162.2039 C.ar    1  UNL1        0.0046
     15 C         143.3880  140.2330  161.4238 C.ar    1  UNL1        0.0369
     16 C         144.2982  142.6126  159.8336 C.3     1  UNL1        0.2525
     17 O         144.1340  141.2795  159.1658 O.3     1  UNL1       -0.4714
     18 C         140.3736  140.3311  169.5384 C.2     1  UNL1        0.2456
     19 N         140.2353  139.4421  170.7386 N.am    1  UNL1       -0.3252
     20 O         139.6487  141.6434  169.4896 O.2     1  UNL1       -0.2703
     21 H         140.7111  138.5808  170.7706 H       1  UNL1        0.1453
     22 H         139.6688  139.7198  171.4943 H       1  UNL1        0.1453
     23 N         139.4278  140.7480  166.7220 N.pl3   1  UNL1       -0.3327
     24 H         138.6174  140.3702  167.1341 H       1  UNL1        0.1468
     25 C         139.3265  141.9552  165.8376 C.3     1  UNL1        0.0702
     26 C         140.0791  143.2410  166.0111 C.3     1  UNL1        0.0208
     27 C         139.6726  144.1691  164.9051 C.3     1  UNL1        0.0160
     28 C         138.6687  143.4568  164.0479 C.3     1  UNL1        0.0404
     29 C         138.6729  144.7319  163.2578 C.3     1  UNL1        0.0156
     30 N         137.6657  143.0112  163.0255 N.3     1  UNL1       -0.3231
     31 C         138.4548  142.0886  164.6242 C.3     1  UNL1        0.0282
     32 C         137.4964  141.9289  163.4813 C.3     1  UNL1        0.0029
     33 C         138.0405  140.6870  164.9615 C.3     1  UNL1        0.0029
     34 H         137.5086  143.7621  162.3534 H       1  UNL1        0.1188
     35 H         136.7869  142.7807  163.4893 H       1  UNL1        0.1188
@<TRIPOS>BOND
     1    16    17    1
     2    17    10    1
     3    10    11   ar
     4    11    12   ar
     5    12    13   ar
     6    13    14   ar
     7    14     1    1
     8     1     2   ar
     9     2     3   ar
    10     3     4   ar
    11     4    23    1
    12    25    23    1
    13    25    26    1
    14    26    27    1
    15    27    28    1
    16    28    29    1
    17    28    30    1
    18    28    31    1
    19    31    32    1
    20    31    33    1
    21     4     5   ar
    22     5    18    1
    23    18    19   am
    24    18    20    2
    25     5     6   ar
    26     6     7   ar
    27     7     8   ar
    28     8     9   ar
    29    14    15   ar
    30    15    10   ar
    31     9     1   ar
    32     8     3   ar
    33    31    25    1
    34    23    24    1
    35    30    34    1
    36    30    35    1
    37    19    21    1
    38    19    22    1
@<TRIPOS>MOLECULE
*****
 35 38 0 0 0
SMALL
GASTEIGER

@<TRIPOS>ATOM
      1 C         140.6446  140.1227  166.1993 C.ar    1  UNL1        0.0208
      2 C         141.3254  140.9234  165.1292 C.ar    1  UNL1        0.0219
      3 C         141.4381  140.0618  163.9065 C.ar    1  UNL1        0.0961
      4 C         142.0184  140.3190  162.5474 C.ar    1  UNL1        0.0685
      5 C         141.9874  139.2428  161.5028 C.ar    1  UNL1        0.0885
      6 C         141.3762  137.9097  161.8174 C.ar    1  UNL1        0.1263
      7 N         140.7960  137.6525  163.1765 N.ar    1  UNL1       -0.1633
      8 N         140.8270  138.7285  164.2211 N.ar    1  UNL1       -0.2270
      9 C         140.3365  138.7662  165.6381 C.ar    1  UNL1        0.1004
     10 C         140.7773  142.2108  169.5716 C.ar    1  UNL1        0.1387
     11 C         139.6931  141.5409  170.3627 C.ar    1  UNL1        0.0369
     12 C         138.9261  140.3983  169.7660 C.ar    1  UNL1        0.0031
     13 C         139.2433  139.9256  168.3782 C.ar    1  UNL1        0.0002
     14 C         140.3275  140.5955  167.5871 C.ar    1  UNL1        0.0046
     15 C         141.0945  141.7381  168.1838 C.ar    1  UNL1        0.0369
     16 C         142.9901  143.1796  170.5281 C.3     1  UNL1        0.2525
     17 O         141.5443  143.3535  170.1683 O.3     1  UNL1       -0.4714
     18 C         142.5676  139.5000  160.1437 C.2     1  UNL1        0.2456
     19 N         144.0020  139.1617  159.8643 N.am    1  UNL1       -0.3252
     20 O         141.7135  140.0955  159.0639 O.2     1  UNL1       -0.2703
     21 H         144.5626  138.7709  160.5729 H       1  UNL1        0.1453
     22 H         144.3828  139.3305  158.9722 H       1  UNL1        0.1453
     23 N         142.6296  141.6522  162.2328 N.pl3   1  UNL1       -0.3327
     24 H         143.6081  141.7438  162.1748 H       1  UNL1        0.1468
     25 C         141.7498  142.8459  162.0065 C.3     1  UNL1        0.0702
     26 C         140.6317  142.9411  161.0112 C.3     1  UNL1        0.0208
     27 C         140.0246  144.3079  161.1254 C.3     1  UNL1        0.0160
     28 C         140.7675  145.0575  162.1912 C.3     1  UNL1        0.0404
     29 C         139.8149  146.1663  161.8548 C.3     1  UNL1        0.0156
     30 N         141.3113  146.0389  163.1867 N.3     1  UNL1       -0.3231
     31 C         141.8338  144.1540  162.7358 C.3     1  UNL1        0.0282
     32 C         142.1547  145.3243  163.6175 C.3     1  UNL1        0.0029
     33 C         142.9671  143.4950  163.4647 C.3     1  UNL1        0.0029
     34 H         140.7838  146.9100  163.1284 H       1  UNL1        0.1188
     35 H         142.2936  146.2219  162.9820 H       1  UNL1        0.1188
@<TRIPOS>BOND
     1    16    17    1
     2    17    10    1
     3    10    11   ar
     4    11    12   ar
     5    12    13   ar
     6    13    14   ar
     7    14     1    1
     8     1     2   ar
     9     2     3   ar
    10     3     4   ar
    11     4    23    1
    12    25    23    1
    13    25    26    1
    14    26    27    1
    15    27    28    1
    16    28    29    1
    17    28    30    1
    18    28    31    1
    19    31    32    1
    20    31    33    1
    21     4     5   ar
    22     5    18    1
    23    18    19   am
    24    18    20    2
    25     5     6   ar
    26     6     7   ar
    27     7     8   ar
    28     8     9   ar
    29    14    15   ar
    30    15    10   ar
    31     9     1   ar
    32     8     3   ar
    33    31    25    1
    34    23    24    1
    35    30    34    1
    36    30    35    1
    37    19    21    1
    38    19    22    1
@<TRIPOS>MOLECULE
*****
 35 38 0 0 0
SMALL
GASTEIGER

@<TRIPOS>ATOM
      1 C         140.3335  142.6372  163.7875 C.ar    1  UNL1        0.0208
      2 C         140.8244  141.3096  164.2838 C.ar    1  UNL1        0.0219
      3 C         140.8896  141.3698  165.7812 C.ar    1  UNL1        0.0961
      4 C         141.3011  140.3581  166.8093 C.ar    1  UNL1        0.0685
      5 C         141.2620  140.7113  168.2667 C.ar    1  UNL1        0.0885
      6 C         140.8114  142.0761  168.6958 C.ar    1  UNL1        0.1263
      7 N         140.3999  143.0878  167.6676 N.ar    1  UNL1       -0.1633
      8 N         140.4390  142.7346  166.2103 N.ar    1  UNL1       -0.2270
      9 C         140.0953  143.5180  164.9782 C.ar    1  UNL1        0.1004
     10 C         140.8787  144.3048  160.2278 C.ar    1  UNL1        0.1387
     11 C         139.6884  143.7779  159.4825 C.ar    1  UNL1        0.0369
     12 C         138.7130  142.8707  160.1723 C.ar    1  UNL1        0.0031
     13 C         138.9281  142.4905  161.6073 C.ar    1  UNL1        0.0002
     14 C         140.1185  143.0175  162.3525 C.ar    1  UNL1        0.0046
     15 C         141.0938  143.9246  161.6628 C.ar    1  UNL1        0.0369
     16 C         141.5781  145.6877  158.1425 C.3     1  UNL1        0.2525
     17 O         141.8540  145.2120  159.5380 O.3     1  UNL1       -0.4714
     18 C         141.6735  139.6995  169.2949 C.2     1  UNL1        0.2456
     19 N         140.7952  139.4370  170.4822 N.am    1  UNL1       -0.3252
     20 O         142.9632  138.9503  169.1357 O.2     1  UNL1       -0.2703
     21 H         139.9487  139.9287  170.5867 H       1  UNL1        0.1453
     22 H         141.0653  138.7730  171.1571 H       1  UNL1        0.1453
     23 N         141.7517  138.9931  166.3803 N.pl3   1  UNL1       -0.3327
     24 H         141.5903  138.2158  166.9625 H       1  UNL1        0.1468
     25 C         142.4481  138.8126  165.0641 C.3     1  UNL1        0.0702
     26 C         143.7868  139.3765  164.6903 C.3     1  UNL1        0.0208
     27 C         144.0941  138.9489  163.2857 C.3     1  UNL1        0.0160
     28 C         142.9453  138.1208  162.7915 C.3     1  UNL1        0.0404
     29 C         143.7580  138.0278  161.5341 C.3     1  UNL1        0.0156
     30 N         141.9663  137.2732  162.0343 N.3     1  UNL1       -0.3231
     31 C         141.9280  138.0366  163.8905 C.3     1  UNL1        0.0282
     32 C         141.1616  137.2066  162.9036 C.3     1  UNL1        0.0029
     33 C         140.7504  137.7788  164.7832 C.3     1  UNL1        0.0029
     34 H         142.3343  137.0783  161.1032 H       1  UNL1        0.1188
     35 H         141.0791  137.7697  161.9522 H       1  UNL1        0.1188
@<TRIPOS>BOND
     1    16    17    1
     2    17    10    1
     3    10    11   ar
     4    11    12   ar
     5    12    13   ar
     6    13    14   ar
     7    14     1    1
     8     1     2   ar
     9     2     3   ar
    10     3     4   ar
    11     4    23    1
    12    25    23    1
    13    25    26    1
    14    26    27    1
    15    27    28    1
    16    28    29    1
    17    28    30    1
    18    28    31    1
    19    31    32    1
    20    31    33    1
    21     4     5   ar
    22     5    18    1
    23    18    19   am
    24    18    20    2
    25     5     6   ar
    26     6     7   ar
    27     7     8   ar
    28     8     9   ar
    29    14    15   ar
    30    15    10   ar
    31     9     1   ar
    32     8     3   ar
    33    31    25    1
    34    23    24    1
    35    30    34    1
    36    30    35    1
    37    19    21    1
    38    19    22    1
@<TRIPOS>MOLECULE
*****
 35 38 0 0 0
SMALL
GASTEIGER

@<TRIPOS>ATOM
      1 C         140.2186  138.7288  162.9364 C.ar    1  UNL1        0.0208
      2 C         140.8546  139.6446  163.9397 C.ar    1  UNL1        0.0219
      3 C         140.0805  139.5386  165.2201 C.ar    1  UNL1        0.0961
      4 C         140.2465  140.2088  166.5517 C.ar    1  UNL1        0.0685
      5 C         139.2979  139.8977  167.6714 C.ar    1  UNL1        0.0885
      6 C         138.1836  138.9164  167.4594 C.ar    1  UNL1        0.1263
      7 N         138.0176  138.2461  166.1278 N.ar    1  UNL1       -0.1633
      8 N         138.9661  138.5572  165.0082 N.ar    1  UNL1       -0.2270
      9 C         139.0514  138.0567  163.5967 C.ar    1  UNL1        0.1004
     10 C         140.1532  138.4940  158.9752 C.ar    1  UNL1        0.1387
     11 C         141.5741  138.1066  158.6907 C.ar    1  UNL1        0.0369
     12 C         142.5432  137.9266  159.8214 C.ar    1  UNL1        0.0031
     13 C         142.0913  138.1340  161.2366 C.ar    1  UNL1        0.0002
     14 C         140.6704  138.5214  161.5212 C.ar    1  UNL1        0.0046
     15 C         139.7013  138.7014  160.3905 C.ar    1  UNL1        0.0369
     16 C         139.6720  138.6428  156.4265 C.3     1  UNL1        0.2525
     17 O         139.1841  138.6739  157.8446 O.3     1  UNL1       -0.4714
     18 C         139.4639  140.5680  169.0031 C.2     1  UNL1        0.2456
     19 N         139.0303  139.8656  170.2555 N.am    1  UNL1       -0.3252
     20 O         140.0634  141.9407  169.0822 O.2     1  UNL1       -0.2703
     21 H         138.6368  138.9646  170.2035 H       1  UNL1        0.1453
     22 H         139.1392  140.3055  171.1295 H       1  UNL1        0.1453
     23 N         141.3609  141.1903  166.7638 N.pl3   1  UNL1       -0.3327
     24 H         141.9959  141.0615  167.5051 H       1  UNL1        0.1468
     25 C         141.5078  142.3679  165.8464 C.3     1  UNL1        0.0702
     26 C         140.3940  143.2361  165.3409 C.3     1  UNL1        0.0208
     27 C         140.9922  144.2888  164.4555 C.3     1  UNL1        0.0160
     28 C         142.4757  144.0712  164.4138 C.3     1  UNL1        0.0404
     29 C         142.4668  145.2651  163.5058 C.3     1  UNL1        0.0156
     30 N         143.9574  144.1032  164.1823 N.3     1  UNL1       -0.3231
     31 C         142.7944  142.8840  165.2734 C.3     1  UNL1        0.0282
     32 C         144.2095  143.1642  164.8622 C.3     1  UNL1        0.0029
     33 C         143.4089  141.7554  166.0470 C.3     1  UNL1        0.0029
     34 H         144.1876  144.8780  163.5600 H       1  UNL1        0.1188
     35 H         144.2539  143.2252  163.7562 H       1  UNL1        0.1188
@<TRIPOS>BOND
     1    16    17    1
     2    17    10    1
     3    10    11   ar
     4    11    12   ar
     5    12    13   ar
     6    13    14   ar
     7    14     1    1
     8     1     2   ar
     9     2     3   ar
    10     3     4   ar
    11     4    23    1
    12    25    23    1
    13    25    26    1
    14    26    27    1
    15    27    28    1
    16    28    29    1
    17    28    30    1
    18    28    31    1
    19    31    32    1
    20    31    33    1
    21     4     5   ar
    22     5    18    1
    23    18    19   am
    24    18    20    2
    25     5     6   ar
    26     6     7   ar
    27     7     8   ar
    28     8     9   ar
    29    14    15   ar
    30    15    10   ar
    31     9     1   ar
    32     8     3   ar
    33    31    25    1
    34    23    24    1
    35    30    34    1
    36    30    35    1
    37    19    21    1
    38    19    22    1
@<TRIPOS>MOLECULE
*****
 35 38 0 0 0
SMALL
GASTEIGER

@<TRIPOS>ATOM
      1 C         142.6188  141.5808  165.0489 C.ar    1  UNL1        0.0208
      2 C         141.1886  141.1288  165.0620 C.ar    1  UNL1        0.0219
      3 C         140.8290  140.7694  166.4732 C.ar    1  UNL1        0.0961
      4 C         139.5576  140.2626  167.0869 C.ar    1  UNL1        0.0685
      5 C         139.4943  139.9856  168.5598 C.ar    1  UNL1        0.0885
      6 C         140.7021  140.2155  169.4189 C.ar    1  UNL1        0.1263
      7 N         141.9735  140.7224  168.8051 N.ar    1  UNL1       -0.1633
      8 N         142.0369  140.9993  167.3323 N.ar    1  UNL1       -0.2270
      9 C         143.1431  141.5008  166.4520 C.ar    1  UNL1        0.1004
     10 C         143.4918  143.3299  161.5952 C.ar    1  UNL1        0.1387
     11 C         144.9309  142.9384  161.4348 C.ar    1  UNL1        0.0369
     12 C         145.5994  142.0943  162.4792 C.ar    1  UNL1        0.0031
     13 C         144.8286  141.6418  163.6839 C.ar    1  UNL1        0.0002
     14 C         143.3895  142.0333  163.8442 C.ar    1  UNL1        0.0046
     15 C         142.7211  142.8774  162.7998 C.ar    1  UNL1        0.0369
     16 C         141.4381  144.6994  160.7849 C.3     1  UNL1        0.2525
     17 O         142.8234  144.1740  160.5508 O.3     1  UNL1       -0.4714
     18 C         138.2228  139.4787  169.1736 C.2     1  UNL1        0.2456
     19 N         137.8443  139.8931  170.5647 N.am    1  UNL1       -0.3252
     20 O         137.3300  138.5574  168.3963 O.2     1  UNL1       -0.2703
     21 H         138.4303  140.4977  171.0748 H       1  UNL1        0.1453
     22 H         137.0098  139.5604  170.9675 H       1  UNL1        0.1453
     23 N         138.3496  140.0326  166.2279 N.pl3   1  UNL1       -0.3327
     24 H         137.4644  140.3383  166.5314 H       1  UNL1        0.1468
     25 C         138.4905  139.3370  164.9064 C.3     1  UNL1        0.0702
     26 C         139.0344  137.9558  164.6907 C.3     1  UNL1        0.0208
     27 C         138.9923  137.6656  163.2197 C.3     1  UNL1        0.0160
     28 C         138.4224  138.8674  162.5262 C.3     1  UNL1        0.0404
     29 C         138.6221  138.0500  161.2845 C.3     1  UNL1        0.0156
     30 N         137.8943  139.8983  161.5732 N.3     1  UNL1       -0.3231
     31 C         138.1123  139.9004  163.5687 C.3     1  UNL1        0.0282
     32 C         137.6490  140.7154  162.3977 C.3     1  UNL1        0.0029
     33 C         137.7054  141.1037  164.3664 C.3     1  UNL1        0.0029
     34 H         137.9390  139.5356  160.6209 H       1  UNL1        0.1188
     35 H         138.4589  140.7451  161.6413 H       1  UNL1        0.1188
@<TRIPOS>BOND
     1    16    17    1
     2    17    10    1
     3    10    11   ar
     4    11    12   ar
     5    12    13   ar
     6    13    14   ar
     7    14     1    1
     8     1     2   ar
     9     2     3   ar
    10     3     4   ar
    11     4    23    1
    12    25    23    1
    13    25    26    1
    14    26    27    1
    15    27    28    1
    16    28    29    1
    17    28    30    1
    18    28    31    1
    19    31    32    1
    20    31    33    1
    21     4     5   ar
    22     5    18    1
    23    18    19   am
    24    18    20    2
    25     5     6   ar
    26     6     7   ar
    27     7     8   ar
    28     8     9   ar
    29    14    15   ar
    30    15    10   ar
    31     9     1   ar
    32     8     3   ar
    33    31    25    1
    34    23    24    1
    35    30    34    1
    36    30    35    1
    37    19    21    1
    38    19    22    1
@<TRIPOS>MOLECULE
*****
 35 38 0 0 0
SMALL
GASTEIGER

@<TRIPOS>ATOM
      1 C         138.8845  139.6353  160.5987 C.ar    1  UNL1        0.0208
      2 C         138.7315  140.5396  161.7856 C.ar    1  UNL1        0.0219
      3 C         138.7426  139.6888  163.0209 C.ar    1  UNL1        0.0961
      4 C         138.6279  140.0316  164.4767 C.ar    1  UNL1        0.0685
      5 C         138.6730  138.9442  165.5090 C.ar    1  UNL1        0.0885
      6 C         138.8329  137.5142  165.0856 C.ar    1  UNL1        0.1263
      7 N         138.9476  137.1715  163.6298 N.ar    1  UNL1       -0.1633
      8 N         138.9025  138.2588  162.5975 N.ar    1  UNL1       -0.2270
      9 C         138.9902  138.2257  161.1004 C.ar    1  UNL1        0.1004
     10 C         137.7597  141.1309  157.0989 C.ar    1  UNL1        0.1387
     11 C         139.0053  140.9249  156.2890 C.ar    1  UNL1        0.0369
     12 C         140.2107  140.2890  156.9157 C.ar    1  UNL1        0.0031
     13 C         140.1703  139.8592  158.3522 C.ar    1  UNL1        0.0002
     14 C         138.9247  140.0652  159.1621 C.ar    1  UNL1        0.0046
     15 C         137.7193  140.7011  158.5355 C.ar    1  UNL1        0.0369
     16 C         136.7124  142.9783  155.6021 C.3     1  UNL1        0.2525
     17 O         136.5543  141.7668  156.4723 O.3     1  UNL1       -0.4714
     18 C         138.5582  139.2870  166.9649 C.2     1  UNL1        0.2456
     19 N         137.5933  138.5402  167.8374 N.am    1  UNL1       -0.3252
     20 O         139.4083  140.3765  167.5482 O.2     1  UNL1       -0.2703
     21 H         137.0353  137.8251  167.4546 H       1  UNL1        0.1453
     22 H         137.5179  138.7652  168.7929 H       1  UNL1        0.1453
     23 N         138.4680  141.4617  164.9003 N.pl3   1  UNL1       -0.3327
     24 H         137.6349  141.7564  165.3343 H       1  UNL1        0.1468
     25 C         139.5774  142.4428  164.6624 C.3     1  UNL1        0.0702
     26 C         141.0252  142.2340  164.9941 C.3     1  UNL1        0.0208
     27 C         141.7764  143.4671  164.5878 C.3     1  UNL1        0.0160
     28 C         140.7928  144.4381  164.0050 C.3     1  UNL1        0.0404
     29 C         141.9990  145.3123  163.8293 C.3     1  UNL1        0.0156
     30 N         140.0614  145.5918  163.3855 N.3     1  UNL1       -0.3231
     31 C         139.4337  143.8051  164.0511 C.3     1  UNL1        0.0282
     32 C         138.9863  145.0912  163.4219 C.3     1  UNL1        0.0029
     33 C         137.9811  143.4409  163.9657 C.3     1  UNL1        0.0029
     34 H         140.7224  146.3391  163.1736 H       1  UNL1        0.1188
     35 H         139.3560  145.9363  164.0367 H       1  UNL1        0.1188
@<TRIPOS>BOND
     1    16    17    1
     2    17    10    1
     3    10    11   ar
     4    11    12   ar
     5    12    13   ar
     6    13    14   ar
     7    14     1    1
     8     1     2   ar
     9     2     3   ar
    10     3     4   ar
    11     4    23    1
    12    25    23    1
    13    25    26    1
    14    26    27    1
    15    27    28    1
    16    28    29    1
    17    28    30    1
    18    28    31    1
    19    31    32    1
    20    31    33    1
    21     4     5   ar
    22     5    18    1
    23    18    19   am
    24    18    20    2
    25     5     6   ar
    26     6     7   ar
    27     7     8   ar
    28     8     9   ar
    29    14    15   ar
    30    15    10   ar
    31     9     1   ar
    32     8     3   ar
    33    31    25    1
    34    23    24    1
    35    30    34    1
    36    30    35    1
    37    19    21    1
    38    19    22    1
