@<TRIPOS>MOLECULE
*****
 28 32 0 0 0
SMALL
GASTEIGER

@<TRIPOS>ATOM
      1 C         140.9060  143.5341  164.3624 C.3     1  UNL1        0.2387
      2 O         140.9507  143.6786  163.9542 O.2     1  UNL1       -0.4451
      3 C         140.8768  143.4813  164.5411 C.2     1  UNL1        0.3207
      4 N         138.2622  145.4937  166.2910 N.pl3   1  UNL1       -0.0691
      5 N         140.9353  143.6122  164.1301 N.2     1  UNL1       -0.2137
      6 C         140.9336  143.5604  164.2436 C.3     1  UNL1        0.1634
      7 C         141.4102  142.5632  165.2577 C.ar    1  UNL1        0.0013
      8 C         141.0171  142.3159  166.6839 C.ar    1  UNL1       -0.0023
      9 C         141.6826  141.2231  167.4666 C.ar    1  UNL1        0.0027
     10 C         142.7413  140.3775  166.8231 C.ar    1  UNL1       -0.0002
     11 C         143.1345  140.6248  165.3968 C.ar    1  UNL1       -0.0042
     12 C         142.4689  141.7176  164.6142 C.ar    1  UNL1       -0.0198
     13 C         142.6465  142.1922  163.2023 C.3     1  UNL1        0.0508
     14 C         141.6976  143.3311  162.9733 C.2     1  UNL1       -0.0082
     15 C         142.5358  142.9857  161.7783 C.2     1  UNL1       -0.0024
     16 C         142.3786  143.7595  160.5029 C.2     1  UNL1        0.0360
     17 C         141.3831  144.8787  160.4226 C.2     1  UNL1        0.1347
     18 C         140.5449  145.2241  161.6176 C.2     1  UNL1        0.0116
     19 C         139.5494  146.3433  161.5372 C.3     1  UNL1        0.0342
     20 C         140.7022  144.4503  162.8929 C.2     1  UNL1       -0.0067
     21 C         141.2894  140.9757  168.8930 C.ar    1  UNL1        0.0384
     22 C         142.0910  141.5801  170.0075 C.ar    1  UNL1        0.1022
     23 N         141.6979  141.3328  171.4337 N.ar    1  UNL1       -0.2224
     24 C         140.5032  140.4811  171.7456 C.ar    1  UNL1        0.1989
     25 N         139.7016  139.8767  170.6310 N.ar    1  UNL1       -0.2224
     26 C         140.0947  140.1240  169.2047 C.ar    1  UNL1        0.1022
     27 O         141.2259  145.6524  159.1472 O.2     1  UNL1       -0.4717
     28 C         140.2650  145.1798  158.0968 C.3     1  UNL1        0.2525
@<TRIPOS>BOND
     1     1     2    1
     2     2     3    1
     3     3     4    1
     4     3     5    2
     5     5     6    1
     6     6     7    1
     7     7     8   ar
     8     8     9   ar
     9     9    21    1
    10    21    22   ar
    11    22    23   ar
    12    23    24   ar
    13    24    25   ar
    14    25    26   ar
    15     9    10   ar
    16    10    11   ar
    17    11    12   ar
    18    12    13    1
    19    14    13    1
    20    14    15    2
    21    15    16    1
    22    16    17    2
    23    17    27    1
    24    27    28    1
    25    17    18    1
    26    18    19    1
    27    18    20    2
    28     6     1    1
    29    12     7   ar
    30    20    14    1
    31    14     6    1
    32    26    21   ar
@<TRIPOS>MOLECULE
*****
 28 32 0 0 0
SMALL
GASTEIGER

@<TRIPOS>ATOM
      1 C         141.9858  140.6940  163.6005 C.3     1  UNL1        0.2387
      2 O         142.1244  140.5422  163.2168 O.2     1  UNL1       -0.4451
      3 C         141.9190  140.7698  163.7597 C.2     1  UNL1        0.3207
      4 N         139.7913  143.7887  163.2053 N.pl3   1  UNL1       -0.0691
      5 N         142.0671  140.6039  163.3855 N.2     1  UNL1       -0.2137
      6 C         142.0353  140.6356  163.5020 C.3     1  UNL1        0.1634
      7 C         142.0630  140.4384  164.9887 C.ar    1  UNL1        0.0013
      8 C         141.4287  141.2004  166.1142 C.ar    1  UNL1       -0.0023
      9 C         141.6384  140.7573  167.5318 C.ar    1  UNL1        0.0027
     10 C         142.4823  139.5521  167.8239 C.ar    1  UNL1       -0.0002
     11 C         143.1166  138.7901  166.6984 C.ar    1  UNL1       -0.0042
     12 C         142.9069  139.2332  165.2808 C.ar    1  UNL1       -0.0198
     13 C         143.4009  138.6857  163.9745 C.3     1  UNL1        0.0508
     14 C         142.8622  139.5524  162.8752 C.2     1  UNL1       -0.0082
     15 C         143.7157  138.4167  162.3939 C.2     1  UNL1       -0.0024
     16 C         143.9608  138.2325  160.9256 C.2     1  UNL1        0.0360
     17 C         143.3525  139.1841  159.9385 C.2     1  UNL1        0.1347
     18 C         142.4991  140.3198  160.4197 C.2     1  UNL1        0.0116
     19 C         141.8907  141.2715  159.4326 C.3     1  UNL1        0.0342
     20 C         142.2539  140.5040  161.8881 C.2     1  UNL1       -0.0067
     21 C         141.0040  141.5194  168.6575 C.ar    1  UNL1        0.0384
     22 C         140.7257  142.9857  168.5074 C.ar    1  UNL1        0.1022
     23 N         140.0915  143.7477  169.6329 N.ar    1  UNL1       -0.2224
     24 C         139.7355  143.0435  170.9087 C.ar    1  UNL1        0.1989
     25 N         140.0138  141.5772  171.0588 N.ar    1  UNL1       -0.2224
     26 C         140.6481  140.8151  169.9331 C.ar    1  UNL1        0.1022
     27 O         143.5977  138.9999  158.4702 O.2     1  UNL1       -0.4717
     28 C         142.7420  138.0551  157.6796 C.3     1  UNL1        0.2525
@<TRIPOS>BOND
     1     1     2    1
     2     2     3    1
     3     3     4    1
     4     3     5    2
     5     5     6    1
     6     6     7    1
     7     7     8   ar
     8     8     9   ar
     9     9    21    1
    10    21    22   ar
    11    22    23   ar
    12    23    24   ar
    13    24    25   ar
    14    25    26   ar
    15     9    10   ar
    16    10    11   ar
    17    11    12   ar
    18    12    13    1
    19    14    13    1
    20    14    15    2
    21    15    16    1
    22    16    17    2
    23    17    27    1
    24    27    28    1
    25    17    18    1
    26    18    19    1
    27    18    20    2
    28     6     1    1
    29    12     7   ar
    30    20    14    1
    31    14     6    1
    32    26    21   ar
@<TRIPOS>MOLECULE
*****
 28 32 0 0 0
SMALL
GASTEIGER

@<TRIPOS>ATOM
      1 C         139.4835  141.6280  163.7958 C.3     1  UNL1        0.2387
      2 O         139.3555  141.5645  163.3847 O.2     1  UNL1       -0.4451
      3 C         139.5456  141.6671  163.9696 C.2     1  UNL1        0.3207
      4 N         141.6162  144.7695  164.1596 N.pl3   1  UNL1       -0.0691
      5 N         139.4082  141.5874  163.5642 N.2     1  UNL1       -0.2137
      6 C         139.4371  141.5926  163.6856 C.3     1  UNL1        0.1634
      7 C         139.3860  141.0642  165.0885 C.ar    1  UNL1        0.0013
      8 C         139.9821  141.5632  166.3713 C.ar    1  UNL1       -0.0023
      9 C         139.7557  140.8078  167.6472 C.ar    1  UNL1        0.0027
     10 C         138.9332  139.5535  167.6404 C.ar    1  UNL1       -0.0002
     11 C         138.3371  139.0545  166.3576 C.ar    1  UNL1       -0.0042
     12 C         138.5635  139.8098  165.0817 C.ar    1  UNL1       -0.0198
     13 C         138.1063  139.5630  163.6745 C.3     1  UNL1        0.0508
     14 C         138.6462  140.6648  162.8117 C.2     1  UNL1       -0.0082
     15 C         137.8272  139.6525  162.0671 C.2     1  UNL1       -0.0024
     16 C         137.6137  139.8006  160.5897 C.2     1  UNL1        0.0360
     17 C         138.2193  140.9609  159.8570 C.2     1  UNL1        0.1347
     18 C         139.0383  141.9731  160.6016 C.2     1  UNL1        0.0116
     19 C         139.6439  143.1335  159.8688 C.3     1  UNL1        0.0342
     20 C         139.2518  141.8251  162.0789 C.2     1  UNL1       -0.0067
     21 C         140.3519  141.3068  168.9301 C.ar    1  UNL1        0.0384
     22 C         141.1443  142.5803  168.9435 C.ar    1  UNL1        0.1022
     23 N         141.7404  143.0793  170.2263 N.ar    1  UNL1       -0.2224
     24 C         141.5441  142.3048  171.4958 C.ar    1  UNL1        0.1989
     25 N         140.7517  141.0312  171.4824 N.ar    1  UNL1       -0.2224
     26 C         140.1555  140.5323  170.1996 C.ar    1  UNL1        0.1022
     27 O         138.0058  141.1089  158.3797 O.2     1  UNL1       -0.4717
     28 C         138.7778  140.2519  157.4207 C.3     1  UNL1        0.2525
@<TRIPOS>BOND
     1     1     2    1
     2     2     3    1
     3     3     4    1
     4     3     5    2
     5     5     6    1
     6     6     7    1
     7     7     8   ar
     8     8     9   ar
     9     9    21    1
    10    21    22   ar
    11    22    23   ar
    12    23    24   ar
    13    24    25   ar
    14    25    26   ar
    15     9    10   ar
    16    10    11   ar
    17    11    12   ar
    18    12    13    1
    19    14    13    1
    20    14    15    2
    21    15    16    1
    22    16    17    2
    23    17    27    1
    24    27    28    1
    25    17    18    1
    26    18    19    1
    27    18    20    2
    28     6     1    1
    29    12     7   ar
    30    20    14    1
    31    14     6    1
    32    26    21   ar
@<TRIPOS>MOLECULE
*****
 28 32 0 0 0
SMALL
GASTEIGER

@<TRIPOS>ATOM
      1 C         139.4938  141.6764  164.0704 C.3     1  UNL1        0.2387
      2 O         139.5060  141.5440  164.4849 O.2     1  UNL1       -0.4451
      3 C         139.4814  141.7220  163.8878 C.2     1  UNL1        0.3207
      4 N         137.6339  139.2075  161.8355 N.pl3   1  UNL1       -0.0691
      5 N         139.5036  141.6059  164.3068 N.2     1  UNL1       -0.2137
      6 C         139.5081  141.6563  164.1927 C.3     1  UNL1        0.1634
      7 C         139.9134  142.7326  163.2296 C.ar    1  UNL1        0.0013
      8 C         139.6953  142.8934  161.7543 C.ar    1  UNL1       -0.0023
      9 C         140.2285  144.1026  161.0448 C.ar    1  UNL1        0.0027
     10 C         140.9799  145.1509  161.8106 C.ar    1  UNL1       -0.0002
     11 C         141.1980  144.9901  163.2859 C.ar    1  UNL1       -0.0042
     12 C         140.6648  143.7809  163.9954 C.ar    1  UNL1       -0.0198
     13 C         140.7239  143.3525  165.4317 C.3     1  UNL1        0.0508
     14 C         140.0091  142.0394  165.5537 C.2     1  UNL1       -0.0082
     15 C         140.5688  142.5518  166.8475 C.2     1  UNL1       -0.0024
     16 C         140.3868  141.7608  168.1090 C.2     1  UNL1        0.0360
     17 C         139.6451  140.4574  168.0765 C.2     1  UNL1        0.1347
     18 C         139.0854  139.9451  166.7826 C.2     1  UNL1        0.0116
     19 C         138.3437  138.6416  166.7501 C.3     1  UNL1        0.0342
     20 C         139.2674  140.7361  165.5212 C.2     1  UNL1       -0.0067
     21 C         140.0104  144.2635  159.5695 C.ar    1  UNL1        0.0384
     22 C         140.5306  145.4801  158.8627 C.ar    1  UNL1        0.1022
     23 N         140.3125  145.6410  157.3875 N.ar    1  UNL1       -0.2224
     24 C         139.5742  144.5854  156.6188 C.ar    1  UNL1        0.1989
     25 N         139.0541  143.3689  157.3256 N.ar    1  UNL1       -0.2224
     26 C         139.2722  143.2080  158.8009 C.ar    1  UNL1        0.1022
     27 O         139.4632  139.6664  169.3379 O.2     1  UNL1       -0.4717
     28 C         140.2006  140.0604  170.5832 C.3     1  UNL1        0.2525
@<TRIPOS>BOND
     1     1     2    1
     2     2     3    1
     3     3     4    1
     4     3     5    2
     5     5     6    1
     6     6     7    1
     7     7     8   ar
     8     8     9   ar
     9     9    21    1
    10    21    22   ar
    11    22    23   ar
    12    23    24   ar
    13    24    25   ar
    14    25    26   ar
    15     9    10   ar
    16    10    11   ar
    17    11    12   ar
    18    12    13    1
    19    14    13    1
    20    14    15    2
    21    15    16    1
    22    16    17    2
    23    17    27    1
    24    27    28    1
    25    17    18    1
    26    18    19    1
    27    18    20    2
    28     6     1    1
    29    12     7   ar
    30    20    14    1
    31    14     6    1
    32    26    21   ar
@<TRIPOS>MOLECULE
*****
 28 32 0 0 0
SMALL
GASTEIGER

@<TRIPOS>ATOM
      1 C         141.2913  139.4767  163.5117 C.3     1  UNL1        0.2387
      2 O         141.2378  139.3904  163.0885 O.2     1  UNL1       -0.4451
      3 C         141.3278  139.5172  163.6923 C.2     1  UNL1        0.3207
      4 N         144.8575  140.5715  164.3074 N.pl3   1  UNL1       -0.0691
      5 N         141.2556  139.4265  163.2727 N.2     1  UNL1       -0.2137
      6 C         141.2559  139.4475  163.3957 C.3     1  UNL1        0.1634
      7 C         140.5885  139.4961  164.7382 C.ar    1  UNL1        0.0013
      8 C         141.0985  139.8648  166.0998 C.ar    1  UNL1       -0.0023
      9 C         140.1781  139.8183  167.2832 C.ar    1  UNL1        0.0027
     10 C         138.7477  139.4032  167.1051 C.ar    1  UNL1       -0.0002
     11 C         138.2378  139.0346  165.7435 C.ar    1  UNL1       -0.0042
     12 C         139.1582  139.0810  164.5601 C.ar    1  UNL1       -0.0198
     13 C         138.9416  138.7758  163.1075 C.3     1  UNL1        0.0508
     14 C         140.2380  139.0023  162.3879 C.2     1  UNL1       -0.0082
     15 C         139.1178  138.5498  161.4989 C.2     1  UNL1       -0.0024
     16 C         139.3548  138.3638  160.0294 C.2     1  UNL1        0.0360
     17 C         140.7120  138.6303  159.4490 C.2     1  UNL1        0.1347
     18 C         141.8322  139.0828  160.3380 C.2     1  UNL1        0.0116
     19 C         143.1895  139.3493  159.7575 C.3     1  UNL1        0.0342
     20 C         141.5952  139.2688  161.8074 C.2     1  UNL1       -0.0067
     21 C         140.6880  140.1870  168.6449 C.ar    1  UNL1        0.0384
     22 C         139.7316  140.6484  169.7044 C.ar    1  UNL1        0.1022
     23 N         140.2415  141.0170  171.0660 N.ar    1  UNL1       -0.2224
     24 C         141.7078  140.9243  171.3683 C.ar    1  UNL1        0.1989
     25 N         142.6642  140.4630  170.3088 N.ar    1  UNL1       -0.2224
     26 C         142.1543  140.0943  168.9471 C.ar    1  UNL1        0.1022
     27 O         140.9490  138.4442  157.9796 O.2     1  UNL1       -0.4717
     28 C         139.9681  137.6652  157.1544 C.3     1  UNL1        0.2525
@<TRIPOS>BOND
     1     1     2    1
     2     2     3    1
     3     3     4    1
     4     3     5    2
     5     5     6    1
     6     6     7    1
     7     7     8   ar
     8     8     9   ar
     9     9    21    1
    10    21    22   ar
    11    22    23   ar
    12    23    24   ar
    13    24    25   ar
    14    25    26   ar
    15     9    10   ar
    16    10    11   ar
    17    11    12   ar
    18    12    13    1
    19    14    13    1
    20    14    15    2
    21    15    16    1
    22    16    17    2
    23    17    27    1
    24    27    28    1
    25    17    18    1
    26    18    19    1
    27    18    20    2
    28     6     1    1
    29    12     7   ar
    30    20    14    1
    31    14     6    1
    32    26    21   ar
@<TRIPOS>MOLECULE
*****
 28 32 0 0 0
SMALL
GASTEIGER

@<TRIPOS>ATOM
      1 C         141.3625  139.6242  165.1032 C.3     1  UNL1        0.2387
      2 O         141.2776  139.6999  165.5233 O.2     1  UNL1       -0.4451
      3 C         141.4125  139.5952  164.9237 C.2     1  UNL1        0.3207
      4 N         145.0085  140.3290  164.2320 N.pl3   1  UNL1       -0.0691
      5 N         141.3091  139.6656  165.3406 N.2     1  UNL1       -0.2137
      6 C         141.3184  139.6399  165.2188 C.3     1  UNL1        0.1634
      7 C         140.7455  139.1950  163.9059 C.ar    1  UNL1        0.0013
      8 C         141.3584  139.0340  162.5463 C.ar    1  UNL1       -0.0023
      9 C         140.5192  138.5606  161.3967 C.ar    1  UNL1        0.0027
     10 C         139.0672  138.2483  161.6066 C.ar    1  UNL1       -0.0002
     11 C         138.4543  138.4094  162.9661 C.ar    1  UNL1       -0.0042
     12 C         139.2934  138.8827  164.1157 C.ar    1  UNL1       -0.0198
     13 C         138.9690  139.1346  165.5584 C.3     1  UNL1        0.0508
     14 C         140.2205  139.6025  166.2402 C.2     1  UNL1       -0.0082
     15 C         139.0283  139.5152  167.1463 C.2     1  UNL1       -0.0024
     16 C         139.1589  139.8815  168.5950 C.2     1  UNL1        0.0360
     17 C         140.4817  140.3351  169.1376 C.2     1  UNL1        0.1347
     18 C         141.6739  140.4224  168.2315 C.2     1  UNL1        0.0116
     19 C         142.9967  140.8760  168.7741 C.3     1  UNL1        0.0342
     20 C         141.5432  140.0561  166.7828 C.2     1  UNL1       -0.0067
     21 C         141.1321  138.3995  160.0371 C.ar    1  UNL1        0.0384
     22 C         140.2705  138.4788  158.8118 C.ar    1  UNL1        0.1022
     23 N         140.8833  138.3177  157.4523 N.ar    1  UNL1       -0.2224
     24 C         142.3579  138.0774  157.3179 C.ar    1  UNL1        0.1989
     25 N         143.2195  137.9981  158.5431 N.ar    1  UNL1       -0.2224
     26 C         142.6066  138.1592  159.9028 C.ar    1  UNL1        0.1022
     27 O         140.6123  140.7014  170.5863 O.2     1  UNL1       -0.4717
     28 C         140.4183  142.1239  171.0207 C.3     1  UNL1        0.2525
@<TRIPOS>BOND
     1     1     2    1
     2     2     3    1
     3     3     4    1
     4     3     5    2
     5     5     6    1
     6     6     7    1
     7     7     8   ar
     8     8     9   ar
     9     9    21    1
    10    21    22   ar
    11    22    23   ar
    12    23    24   ar
    13    24    25   ar
    14    25    26   ar
    15     9    10   ar
    16    10    11   ar
    17    11    12   ar
    18    12    13    1
    19    14    13    1
    20    14    15    2
    21    15    16    1
    22    16    17    2
    23    17    27    1
    24    27    28    1
    25    17    18    1
    26    18    19    1
    27    18    20    2
    28     6     1    1
    29    12     7   ar
    30    20    14    1
    31    14     6    1
    32    26    21   ar
@<TRIPOS>MOLECULE
*****
 28 32 0 0 0
SMALL
GASTEIGER

@<TRIPOS>ATOM
      1 C         141.5554  141.4777  164.3672 C.3     1  UNL1        0.2387
      2 O         141.6293  141.3210  164.7665 O.2     1  UNL1       -0.4451
      3 C         141.5314  141.5352  164.1892 C.2     1  UNL1        0.3207
      4 N         143.3018  139.4143  161.6761 N.pl3   1  UNL1       -0.0691
      5 N         141.5942  141.3928  164.5958 N.2     1  UNL1       -0.2137
      6 C         141.5644  141.4488  164.4882 C.3     1  UNL1        0.1634
      7 C         140.8746  142.5154  163.6904 C.ar    1  UNL1        0.0013
      8 C         140.8206  142.7897  162.2167 C.ar    1  UNL1       -0.0023
      9 C         140.0318  143.9559  161.6994 C.ar    1  UNL1        0.0027
     10 C         139.2970  144.8478  162.6557 C.ar    1  UNL1       -0.0002
     11 C         139.3510  144.5735  164.1294 C.ar    1  UNL1       -0.0042
     12 C         140.1398  143.4073  164.6467 C.ar    1  UNL1       -0.0198
     13 C         140.3755  142.8919  166.0356 C.3     1  UNL1        0.0508
     14 C         141.2560  141.6815  165.9376 C.2     1  UNL1       -0.0082
     15 C         140.8630  142.0381  167.3406 C.2     1  UNL1       -0.0024
     16 C         141.3496  141.2064  168.4901 C.2     1  UNL1        0.0360
     17 C         142.2292  140.0181  168.2368 C.2     1  UNL1        0.1347
     18 C         142.6222  139.6615  166.8338 C.2     1  UNL1        0.0116
     19 C         143.5019  138.4732  166.5804 C.3     1  UNL1        0.0342
     20 C         142.1356  140.4932  165.6842 C.2     1  UNL1       -0.0067
     21 C         139.9778  144.2302  160.2256 C.ar    1  UNL1        0.0384
     22 C         139.3026  143.2565  159.3058 C.ar    1  UNL1        0.1022
     23 N         139.2486  143.5308  157.8321 N.ar    1  UNL1       -0.2224
     24 C         139.8697  144.7788  157.2781 C.ar    1  UNL1        0.1989
     25 N         140.5448  145.7525  158.1980 N.ar    1  UNL1       -0.2224
     26 C         140.5989  145.4782  159.6718 C.ar    1  UNL1        0.1022
     27 O         142.7158  139.1864  169.3863 O.2     1  UNL1       -0.4717
     28 C         142.9772  139.8265  170.7174 C.3     1  UNL1        0.2525
@<TRIPOS>BOND
     1     1     2    1
     2     2     3    1
     3     3     4    1
     4     3     5    2
     5     5     6    1
     6     6     7    1
     7     7     8   ar
     8     8     9   ar
     9     9    21    1
    10    21    22   ar
    11    22    23   ar
    12    23    24   ar
    13    24    25   ar
    14    25    26   ar
    15     9    10   ar
    16    10    11   ar
    17    11    12   ar
    18    12    13    1
    19    14    13    1
    20    14    15    2
    21    15    16    1
    22    16    17    2
    23    17    27    1
    24    27    28    1
    25    17    18    1
    26    18    19    1
    27    18    20    2
    28     6     1    1
    29    12     7   ar
    30    20    14    1
    31    14     6    1
    32    26    21   ar
@<TRIPOS>MOLECULE
*****
 28 32 0 0 0
SMALL
GASTEIGER

@<TRIPOS>ATOM
      1 C         140.8525  142.0499  164.5175 C.3     1  UNL1        0.2387
      2 O         140.8097  141.8462  164.8997 O.2     1  UNL1       -0.4451
      3 C         140.8834  142.1430  164.3564 C.2     1  UNL1        0.3207
      4 N         144.1316  143.9848  164.2878 N.pl3   1  UNL1       -0.0691
      5 N         140.8233  141.9324  164.7326 N.2     1  UNL1       -0.2137
      6 C         140.8217  141.9848  164.6193 C.3     1  UNL1        0.1634
      7 C         140.1845  142.2562  163.2887 C.ar    1  UNL1        0.0013
      8 C         140.6338  143.0629  162.1067 C.ar    1  UNL1       -0.0023
      9 C         139.7657  143.1534  160.8868 C.ar    1  UNL1        0.0027
     10 C         138.4482  142.4372  160.8491 C.ar    1  UNL1       -0.0002
     11 C         137.9989  141.6305  162.0312 C.ar    1  UNL1       -0.0042
     12 C         138.8671  141.5400  163.2510 C.ar    1  UNL1       -0.0198
     13 C         138.6900  140.8260  164.5582 C.3     1  UNL1        0.0508
     14 C         139.8980  141.1009  165.4039 C.2     1  UNL1       -0.0082
     15 C         138.8780  140.2217  166.0646 C.2     1  UNL1       -0.0024
     16 C         139.1199  139.7037  167.4514 C.2     1  UNL1        0.0360
     17 C         140.3817  140.0649  168.1775 C.2     1  UNL1        0.1347
     18 C         141.4017  140.9441  167.5168 C.2     1  UNL1        0.0116
     19 C         142.6636  141.3054  168.2429 C.3     1  UNL1        0.0342
     20 C         141.1598  141.4621  166.1300 C.2     1  UNL1       -0.0067
     21 C         140.2149  143.9601  159.7047 C.ar    1  UNL1        0.0384
     22 C         141.3304  144.9518  159.8537 C.ar    1  UNL1        0.1022
     23 N         141.7797  145.7585  158.6716 N.ar    1  UNL1       -0.2224
     24 C         141.1134  145.5735  157.3404 C.ar    1  UNL1        0.1989
     25 N         139.9979  144.5819  157.1914 N.ar    1  UNL1       -0.2224
     26 C         139.5486  143.7752  158.3736 C.ar    1  UNL1        0.1022
     27 O         140.6236  139.5469  169.5643 O.2     1  UNL1       -0.4717
     28 C         140.0889  140.2961  170.7486 C.3     1  UNL1        0.2525
@<TRIPOS>BOND
     1     1     2    1
     2     2     3    1
     3     3     4    1
     4     3     5    2
     5     5     6    1
     6     6     7    1
     7     7     8   ar
     8     8     9   ar
     9     9    21    1
    10    21    22   ar
    11    22    23   ar
    12    23    24   ar
    13    24    25   ar
    14    25    26   ar
    15     9    10   ar
    16    10    11   ar
    17    11    12   ar
    18    12    13    1
    19    14    13    1
    20    14    15    2
    21    15    16    1
    22    16    17    2
    23    17    27    1
    24    27    28    1
    25    17    18    1
    26    18    19    1
    27    18    20    2
    28     6     1    1
    29    12     7   ar
    30    20    14    1
    31    14     6    1
    32    26    21   ar
@<TRIPOS>MOLECULE
*****
 28 32 0 0 0
SMALL
GASTEIGER

@<TRIPOS>ATOM
      1 C         141.4207  140.4039  164.4290 C.3     1  UNL1        0.2387
      2 O         141.2779  140.3813  164.8396 O.2     1  UNL1       -0.4451
      3 C         141.4709  140.4070  164.2472 C.2     1  UNL1        0.3207
      4 N         138.9875  138.7843  161.9783 N.pl3   1  UNL1       -0.0691
      5 N         141.3442  140.3938  164.6635 N.2     1  UNL1       -0.2137
      6 C         141.3976  140.4077  164.5516 C.3     1  UNL1        0.1634
      7 C         142.5032  140.8808  163.6549 C.ar    1  UNL1        0.0013
      8 C         142.6992  140.7914  162.1705 C.ar    1  UNL1       -0.0023
      9 C         143.9327  141.3677  161.5409 C.ar    1  UNL1        0.0027
     10 C         144.9700  142.0334  162.3957 C.ar    1  UNL1       -0.0002
     11 C         144.7740  142.1228  163.8801 C.ar    1  UNL1       -0.0042
     12 C         143.5405  141.5465  164.5097 C.ar    1  UNL1       -0.0198
     13 C         143.0761  141.4847  165.9347 C.3     1  UNL1        0.0508
     14 C         141.7517  140.7809  165.9606 C.2     1  UNL1       -0.0082
     15 C         142.2374  141.2168  167.3111 C.2     1  UNL1       -0.0024
     16 C         141.4121  140.9357  168.5317 C.2     1  UNL1        0.0360
     17 C         140.1011  140.2186  168.4017 C.2     1  UNL1        0.1347
     18 C         139.6154  139.7827  167.0511 C.2     1  UNL1        0.0116
     19 C         138.3043  139.0656  166.9211 C.3     1  UNL1        0.0342
     20 C         140.4407  140.0639  165.8306 C.2     1  UNL1       -0.0067
     21 C         144.1288  141.2784  160.0564 C.ar    1  UNL1        0.0384
     22 C         143.8703  139.9849  159.3423 C.ar    1  UNL1        0.1022
     23 N         144.0664  139.8955  157.8579 N.ar    1  UNL1       -0.2224
     24 C         144.5210  141.0997  157.0875 C.ar    1  UNL1        0.1989
     25 N         144.7794  142.3932  157.8016 N.ar    1  UNL1       -0.2224
     26 C         144.5833  142.4826  159.2861 C.ar    1  UNL1        0.1022
     27 O         139.2757  139.9374  169.6222 O.2     1  UNL1       -0.4717
     28 C         139.9238  139.9041  170.9745 C.3     1  UNL1        0.2525
@<TRIPOS>BOND
     1     1     2    1
     2     2     3    1
     3     3     4    1
     4     3     5    2
     5     5     6    1
     6     6     7    1
     7     7     8   ar
     8     8     9   ar
     9     9    21    1
    10    21    22   ar
    11    22    23   ar
    12    23    24   ar
    13    24    25   ar
    14    25    26   ar
    15     9    10   ar
    16    10    11   ar
    17    11    12   ar
    18    12    13    1
    19    14    13    1
    20    14    15    2
    21    15    16    1
    22    16    17    2
    23    17    27    1
    24    27    28    1
    25    17    18    1
    26    18    19    1
    27    18    20    2
    28     6     1    1
    29    12     7   ar
    30    20    14    1
    31    14     6    1
    32    26    21   ar
