@<TRIPOS>MOLECULE
*****
 32 35 0 0 0
SMALL
GASTEIGER

@<TRIPOS>ATOM
      1 N         141.0185  141.9435  166.9511 N.3     1  UNL1       -0.2705
      2 C         140.5568  142.6996  168.1615 C.3     1  UNL1        0.1046
      3 C         140.6147  142.0558  169.5152 C.3     1  UNL1        0.1603
      4 O         141.1345  140.6561  169.6583 O.3     1  UNL1       -0.3508
      5 C         141.5962  139.9000  168.4478 C.3     1  UNL1        0.1584
      6 C         141.5382  140.5437  167.0942 C.3     1  UNL1        0.0917
      7 N         140.8446  143.8746  162.8902 N.pl3   1  UNL1       -0.2784
      8 C         142.1402  143.8302  163.6447 C.3     1  UNL1        0.0950
      9 C         142.1982  143.1865  164.9983 C.3     1  UNL1        0.0375
     10 C         140.9605  142.5872  165.5974 C.3     1  UNL1        0.0610
     11 C         139.6648  142.6316  164.8429 C.3     1  UNL1        0.0375
     12 C         139.6069  143.2753  163.4893 C.3     1  UNL1        0.0950
     13 N         142.2672  145.8665  158.2116 N.pl3   1  UNL1       -0.3277
     14 C         141.4405  145.4339  159.3860 C.ar    1  UNL1        0.2131
     15 N         139.9541  145.5837  159.5210 N.ar    1  UNL1       -0.1121
     16 N         139.5500  145.0179  160.8501 N.ar    1  UNL1       -0.1117
     17 C         140.7866  144.5183  161.5365 C.ar    1  UNL1        0.2194
     18 N         141.9550  144.7754  160.6317 N.ar    1  UNL1       -0.2979
     19 H         141.8356  146.2925  157.4360 H       1  UNL1        0.1451
     20 H         143.2414  145.7245  158.2163 H       1  UNL1        0.1451
     21 H         142.8945  144.5512  160.8220 H       1  UNL1        0.1713
     22 C         140.1530  142.8119  170.7256 C.3     1  UNL1        0.1680
     23 O         140.4306  142.2729  172.0976 O.3     1  UNL1       -0.3795
     24 H         139.9397  141.4462  172.2256 H       1  UNL1        0.2105
     25 C         141.9999  139.7876  165.8837 C.3     1  UNL1        0.0448
     26 C         141.0017  139.3153  164.8686 C.ar    1  UNL1       -0.0207
     27 C         139.7894  138.5493  165.3089 C.ar    1  UNL1       -0.0034
     28 C         138.7911  138.0770  164.2938 C.ar    1  UNL1        0.0111
     29 C         139.0052  138.3706  162.8384 C.ar    1  UNL1        0.0577
     30 CL        138.0070  137.8983  161.8233 Cl      1  UNL1       -0.0822
     31 C         140.2174  139.1365  162.3982 C.ar    1  UNL1        0.0111
     32 C         141.2157  139.6088  163.4133 C.ar    1  UNL1       -0.0034
@<TRIPOS>BOND
     1    13    14    1
     2    14    15   ar
     3    15    16   ar
     4    16    17   ar
     5    17     7    1
     6     7     8    1
     7     8     9    1
     8     9    10    1
     9    10     1    1
    10     1     2    1
    11     2     3    1
    12     3    22    1
    13    22    23    1
    14     3     4    1
    15     4     5    1
    16     5     6    1
    17     6    25    1
    18    25    26    1
    19    26    27   ar
    20    27    28   ar
    21    28    29   ar
    22    29    30    1
    23    29    31   ar
    24    31    32   ar
    25    10    11    1
    26    11    12    1
    27    17    18   ar
    28    18    14   ar
    29    12     7    1
    30     6     1    1
    31    32    26   ar
    32    13    19    1
    33    13    20    1
    34    23    24    1
    35    18    21    1
@<TRIPOS>MOLECULE
*****
 32 35 0 0 0
SMALL
GASTEIGER

@<TRIPOS>ATOM
      1 N         142.8696  141.1178  166.6932 N.3     1  UNL1       -0.2705
      2 C         142.8083  142.1455  167.7841 C.3     1  UNL1        0.1046
      3 C         142.6844  141.7136  169.2153 C.3     1  UNL1        0.1603
      4 O         142.6219  140.2540  169.5555 O.3     1  UNL1       -0.3508
      5 C         142.6832  139.2263  168.4645 C.3     1  UNL1        0.1584
      6 C         142.8070  139.6582  167.0334 C.3     1  UNL1        0.0917
      7 N         143.2410  142.4135  162.3998 N.pl3   1  UNL1       -0.2784
      8 C         141.9014  142.4282  163.0744 C.3     1  UNL1        0.0950
      9 C         141.7776  141.9963  164.5055 C.3     1  UNL1        0.0375
     10 C         142.9934  141.5497  165.2620 C.3     1  UNL1        0.0610
     11 C         144.3331  141.5350  164.5874 C.3     1  UNL1        0.0375
     12 C         144.4568  141.9669  163.1563 C.3     1  UNL1        0.0950
     13 N         144.8458  142.7667  157.3817 N.pl3   1  UNL1       -0.3277
     14 C         144.1025  143.0078  158.6621 C.ar    1  UNL1        0.2131
     15 N         143.0082  144.0124  158.8706 N.ar    1  UNL1       -0.1121
     16 N         142.5524  143.9120  160.2961 N.ar    1  UNL1       -0.1117
     17 C         143.3648  142.8454  160.9686 C.ar    1  UNL1        0.2194
     18 N         144.3228  142.2866  159.9588 N.ar    1  UNL1       -0.2979
     19 H         144.6280  143.2939  156.5793 H       1  UNL1        0.1451
     20 H         145.5516  142.0813  157.3438 H       1  UNL1        0.1451
     21 H         144.9808  141.5719  160.1189 H       1  UNL1        0.1713
     22 C         142.6232  142.7412  170.3062 C.3     1  UNL1        0.1680
     23 O         142.2242  142.3380  171.6948 O.3     1  UNL1       -0.3795
     24 H         141.2989  142.0470  171.6938 H       1  UNL1        0.2105
     25 C         142.8683  138.6306  165.9424 C.3     1  UNL1        0.0448
     26 C         141.6897  138.4264  165.0373 C.ar    1  UNL1       -0.0207
     27 C         141.8933  137.8968  163.6487 C.ar    1  UNL1       -0.0034
     28 C         140.7147  137.6926  162.7436 C.ar    1  UNL1        0.0111
     29 C         139.3325  138.0181  163.2271 C.ar    1  UNL1        0.0577
     30 CL        138.1539  137.8140  162.3220 Cl      1  UNL1       -0.0822
     31 C         139.1290  138.5478  164.6156 C.ar    1  UNL1        0.0111
     32 C         140.3076  138.7519  165.5207 C.ar    1  UNL1       -0.0034
@<TRIPOS>BOND
     1    13    14    1
     2    14    15   ar
     3    15    16   ar
     4    16    17   ar
     5    17     7    1
     6     7     8    1
     7     8     9    1
     8     9    10    1
     9    10     1    1
    10     1     2    1
    11     2     3    1
    12     3    22    1
    13    22    23    1
    14     3     4    1
    15     4     5    1
    16     5     6    1
    17     6    25    1
    18    25    26    1
    19    26    27   ar
    20    27    28   ar
    21    28    29   ar
    22    29    30    1
    23    29    31   ar
    24    31    32   ar
    25    10    11    1
    26    11    12    1
    27    17    18   ar
    28    18    14   ar
    29    12     7    1
    30     6     1    1
    31    32    26   ar
    32    13    19    1
    33    13    20    1
    34    23    24    1
    35    18    21    1
@<TRIPOS>MOLECULE
*****
 32 35 0 0 0
SMALL
GASTEIGER

@<TRIPOS>ATOM
      1 N         140.7630  142.0343  167.1477 N.3     1  UNL1       -0.2705
      2 C         141.5639  142.6556  168.2533 C.3     1  UNL1        0.1046
      3 C         141.5924  142.0157  169.6097 C.3     1  UNL1        0.1603
      4 O         140.8200  140.7545  169.8604 O.3     1  UNL1       -0.3508
      5 C         140.0190  140.1333  168.7547 C.3     1  UNL1        0.1584
      6 C         139.9905  140.7732  167.3983 C.3     1  UNL1        0.0917
      7 N         140.6773  143.9540  163.0786 N.pl3   1  UNL1       -0.2784
      8 C         139.5438  144.1747  164.0359 C.3     1  UNL1        0.0950
      9 C         139.5724  143.5348  165.3923 C.3     1  UNL1        0.0375
     10 C         140.7344  142.6743  165.7912 C.3     1  UNL1        0.0610
     11 C         141.8679  142.4536  164.8339 C.3     1  UNL1        0.0375
     12 C         141.8393  143.0935  163.4776 C.3     1  UNL1        0.0950
     13 N         142.1854  145.8389  158.3824 N.pl3   1  UNL1       -0.3277
     14 C         141.3419  145.4603  159.5636 C.ar    1  UNL1        0.2131
     15 N         139.8676  145.6970  159.7063 N.ar    1  UNL1       -0.1121
     16 N         139.4392  145.1615  161.0404 N.ar    1  UNL1       -0.1117
     17 C         140.6487  144.5940  161.7222 C.ar    1  UNL1        0.2194
     18 N         141.8247  144.7786  160.8095 N.ar    1  UNL1       -0.2979
     19 H         141.7747  146.2857  157.6072 H       1  UNL1        0.1451
     20 H         143.1497  145.6405  158.3823 H       1  UNL1        0.1451
     21 H         142.7508  144.5011  160.9955 H       1  UNL1        0.1713
     22 C         142.3934  142.6369  170.7154 C.3     1  UNL1        0.1680
     23 O         142.1401  142.2398  172.1395 O.3     1  UNL1       -0.3795
     24 H         141.2514  142.5266  172.4019 H       1  UNL1        0.2105
     25 C         139.1895  140.1520  166.2926 C.3     1  UNL1        0.0448
     26 C         139.8874  139.5031  165.1342 C.ar    1  UNL1       -0.0207
     27 C         139.3327  139.6475  163.7480 C.ar    1  UNL1       -0.0034
     28 C         140.0306  138.9986  162.5896 C.ar    1  UNL1        0.0111
     29 C         141.2832  138.2053  162.8174 C.ar    1  UNL1        0.0577
     30 CL        141.9811  137.5564  161.6590 Cl      1  UNL1       -0.0822
     31 C         141.8378  138.0609  164.2036 C.ar    1  UNL1        0.0111
     32 C         141.1399  138.7098  165.3620 C.ar    1  UNL1       -0.0034
@<TRIPOS>BOND
     1    13    14    1
     2    14    15   ar
     3    15    16   ar
     4    16    17   ar
     5    17     7    1
     6     7     8    1
     7     8     9    1
     8     9    10    1
     9    10     1    1
    10     1     2    1
    11     2     3    1
    12     3    22    1
    13    22    23    1
    14     3     4    1
    15     4     5    1
    16     5     6    1
    17     6    25    1
    18    25    26    1
    19    26    27   ar
    20    27    28   ar
    21    28    29   ar
    22    29    30    1
    23    29    31   ar
    24    31    32   ar
    25    10    11    1
    26    11    12    1
    27    17    18   ar
    28    18    14   ar
    29    12     7    1
    30     6     1    1
    31    32    26   ar
    32    13    19    1
    33    13    20    1
    34    23    24    1
    35    18    21    1
@<TRIPOS>MOLECULE
*****
 32 35 0 0 0
SMALL
GASTEIGER

@<TRIPOS>ATOM
      1 N         141.1371  139.5655  166.7168 N.3     1  UNL1       -0.2705
      2 C         142.1677  139.4981  167.8046 C.3     1  UNL1        0.1046
      3 C         141.7555  139.6501  169.2388 C.3     1  UNL1        0.1603
      4 O         140.3126  139.8694  169.5853 O.3     1  UNL1       -0.3508
      5 C         139.2820  139.9368  168.4974 C.3     1  UNL1        0.1584
      6 C         139.6942  139.7849  167.0632 C.3     1  UNL1        0.0917
      7 N         142.3737  139.1096  162.4142 N.pl3   1  UNL1       -0.2784
      8 C         141.8196  137.9345  163.1638 C.3     1  UNL1        0.0950
      9 C         141.4074  138.0865  164.5980 C.3     1  UNL1        0.0375
     10 C         141.5493  139.4136  165.2825 C.3     1  UNL1        0.0610
     11 C         142.1035  140.5887  164.5329 C.3     1  UNL1        0.0375
     12 C         142.5156  140.4367  163.0987 C.3     1  UNL1        0.0950
     13 N         142.6822  137.3836  157.4335 N.pl3   1  UNL1       -0.3277
     14 C         142.9277  138.1643  158.6906 C.ar    1  UNL1        0.2131
     15 N         143.9129  139.2834  158.8552 N.ar    1  UNL1       -0.1121
     16 N         143.8253  139.7737  160.2701 N.ar    1  UNL1       -0.1117
     17 C         142.7859  138.9576  160.9799 C.ar    1  UNL1        0.2194
     18 N         142.2313  137.9630  160.0037 N.ar    1  UNL1       -0.2979
     19 H         143.1923  137.5912  156.6175 H       1  UNL1        0.1451
     20 H         142.0109  136.6635  157.4245 H       1  UNL1        0.1451
     21 H         141.5327  137.2952  160.1919 H       1  UNL1        0.1713
     22 C         142.7861  139.5827  170.3266 C.3     1  UNL1        0.1680
     23 O         142.6172  140.4020  171.5716 O.3     1  UNL1       -0.3795
     24 H         142.6773  141.3443  171.3493 H       1  UNL1        0.2105
     25 C         138.6636  139.8523  165.9754 C.3     1  UNL1        0.0448
     26 C         138.5230  141.0979  165.1516 C.ar    1  UNL1       -0.0207
     27 C         139.1638  142.3751  165.6079 C.ar    1  UNL1       -0.0034
     28 C         139.0233  143.6208  164.7840 C.ar    1  UNL1        0.0111
     29 C         138.2419  143.5891  163.5039 C.ar    1  UNL1        0.0577
     30 CL        138.1014  144.8348  162.6801 Cl      1  UNL1       -0.0822
     31 C         137.6012  142.3119  163.0477 C.ar    1  UNL1        0.0111
     32 C         137.7417  141.0663  163.8715 C.ar    1  UNL1       -0.0034
@<TRIPOS>BOND
     1    13    14    1
     2    14    15   ar
     3    15    16   ar
     4    16    17   ar
     5    17     7    1
     6     7     8    1
     7     8     9    1
     8     9    10    1
     9    10     1    1
    10     1     2    1
    11     2     3    1
    12     3    22    1
    13    22    23    1
    14     3     4    1
    15     4     5    1
    16     5     6    1
    17     6    25    1
    18    25    26    1
    19    26    27   ar
    20    27    28   ar
    21    28    29   ar
    22    29    30    1
    23    29    31   ar
    24    31    32   ar
    25    10    11    1
    26    11    12    1
    27    17    18   ar
    28    18    14   ar
    29    12     7    1
    30     6     1    1
    31    32    26   ar
    32    13    19    1
    33    13    20    1
    34    23    24    1
    35    18    21    1
@<TRIPOS>MOLECULE
*****
 32 35 0 0 0
SMALL
GASTEIGER

@<TRIPOS>ATOM
      1 N         139.1079  140.7293  165.3904 N.3     1  UNL1       -0.2705
      2 C         138.2045  139.5455  165.5705 C.3     1  UNL1        0.1046
      3 C         138.0995  138.8792  166.9104 C.3     1  UNL1        0.1603
      4 O         138.8980  139.3966  168.0699 O.3     1  UNL1       -0.3508
      5 C         139.8015  140.5804  167.8897 C.3     1  UNL1        0.1584
      6 C         139.9065  141.2467  166.5499 C.3     1  UNL1        0.0917
      7 N         139.4229  142.7283  161.3711 N.pl3   1  UNL1       -0.2784
      8 C         138.4408  143.2345  162.3856 C.3     1  UNL1        0.0950
      9 C         138.3359  142.5682  163.7253 C.3     1  UNL1        0.0375
     10 C         139.2129  141.3956  164.0505 C.3     1  UNL1        0.0610
     11 C         140.1950  140.8894  163.0360 C.3     1  UNL1        0.0375
     12 C         140.2999  141.5557  161.6963 C.3     1  UNL1        0.0950
     13 N         140.3557  146.3055  157.6008 N.pl3   1  UNL1       -0.3277
     14 C         139.9566  145.0389  158.2983 C.ar    1  UNL1        0.2131
     15 N         139.4222  143.8010  157.6408 N.ar    1  UNL1       -0.1121
     16 N         139.1572  142.7849  158.7118 N.ar    1  UNL1       -0.1117
     17 C         139.5279  143.3946  160.0313 C.ar    1  UNL1        0.2194
     18 N         140.0219  144.7877  159.7756 N.ar    1  UNL1       -0.2979
     19 H         140.2760  146.3746  156.6220 H       1  UNL1        0.1451
     20 H         140.6973  147.0677  158.1219 H       1  UNL1        0.1451
     21 H         140.3342  145.4252  160.4578 H       1  UNL1        0.1713
     22 C         137.1960  137.6955  167.0905 C.3     1  UNL1        0.1680
     23 O         136.2144  137.6669  168.2244 O.3     1  UNL1       -0.3795
     24 H         136.6944  137.6344  169.0668 H       1  UNL1        0.2105
     25 C         140.8100  142.4305  166.3697 C.3     1  UNL1        0.0448
     26 C         142.1051  142.2795  165.6282 C.ar    1  UNL1       -0.0207
     27 C         142.6667  143.4366  164.8563 C.ar    1  UNL1       -0.0034
     28 C         143.9618  143.2856  164.1148 C.ar    1  UNL1        0.0111
     29 C         144.6953  141.9774  164.1451 C.ar    1  UNL1        0.0577
     30 CL        145.9904  141.8264  163.4035 Cl      1  UNL1       -0.0822
     31 C         144.1336  140.8204  164.9169 C.ar    1  UNL1        0.0111
     32 C         142.8385  140.9714  165.6584 C.ar    1  UNL1       -0.0034
@<TRIPOS>BOND
     1    13    14    1
     2    14    15   ar
     3    15    16   ar
     4    16    17   ar
     5    17     7    1
     6     7     8    1
     7     8     9    1
     8     9    10    1
     9    10     1    1
    10     1     2    1
    11     2     3    1
    12     3    22    1
    13    22    23    1
    14     3     4    1
    15     4     5    1
    16     5     6    1
    17     6    25    1
    18    25    26    1
    19    26    27   ar
    20    27    28   ar
    21    28    29   ar
    22    29    30    1
    23    29    31   ar
    24    31    32   ar
    25    10    11    1
    26    11    12    1
    27    17    18   ar
    28    18    14   ar
    29    12     7    1
    30     6     1    1
    31    32    26   ar
    32    13    19    1
    33    13    20    1
    34    23    24    1
    35    18    21    1
@<TRIPOS>MOLECULE
*****
 32 35 0 0 0
SMALL
GASTEIGER

@<TRIPOS>ATOM
      1 N         142.7518  141.1829  166.1004 N.3     1  UNL1       -0.2705
      2 C         142.7481  142.0392  167.3319 C.3     1  UNL1        0.1046
      3 C         142.8653  141.4055  168.6864 C.3     1  UNL1        0.1603
      4 O         142.9863  139.9155  168.8094 O.3     1  UNL1       -0.3508
      5 C         142.9900  139.0591  167.5778 C.3     1  UNL1        0.1584
      6 C         142.8728  139.6928  166.2234 C.3     1  UNL1        0.0917
      7 N         142.4003  143.0839  162.0368 N.pl3   1  UNL1       -0.2784
      8 C         143.7518  142.7419  162.5905 C.3     1  UNL1        0.0950
      9 C         143.8689  142.1083  163.9450 C.3     1  UNL1        0.0375
     10 C         142.6346  141.8166  164.7458 C.3     1  UNL1        0.0610
     11 C         141.2831  142.1585  164.1922 C.3     1  UNL1        0.0375
     12 C         141.1660  142.7922  162.8377 C.3     1  UNL1        0.0950
     13 N         140.6352  145.9527  157.9704 N.pl3   1  UNL1       -0.3277
     14 C         141.4718  145.0362  158.8132 C.ar    1  UNL1        0.2131
     15 N         142.7338  144.3491  158.3825 N.ar    1  UNL1       -0.1121
     16 N         143.2352  143.5342  159.5377 N.ar    1  UNL1       -0.1117
     17 C         142.2831  143.7176  160.6823 C.ar    1  UNL1        0.2194
     18 N         141.1932  144.6458  160.2344 N.ar    1  UNL1       -0.2979
     19 H         140.9018  146.1492  157.0433 H       1  UNL1        0.1451
     20 H         139.8195  146.3576  158.3444 H       1  UNL1        0.1451
     21 H         140.4293  144.9462  160.7779 H       1  UNL1        0.1713
     22 C         142.8615  142.2619  169.9179 C.3     1  UNL1        0.1680
     23 O         144.1266  142.9275  170.3725 O.3     1  UNL1       -0.3795
     24 H         144.7669  142.2523  170.6463 H       1  UNL1        0.2105
     25 C         142.8766  138.8365  164.9918 C.3     1  UNL1        0.0448
     26 C         141.6002  138.5966  164.2412 C.ar    1  UNL1       -0.0207
     27 C         140.2885  138.6090  164.9689 C.ar    1  UNL1       -0.0034
     28 C         139.0122  138.3692  164.2184 C.ar    1  UNL1        0.0111
     29 C         139.0475  138.1168  162.7401 C.ar    1  UNL1        0.0577
     30 CL        137.7711  137.8770  161.9895 Cl      1  UNL1       -0.0822
     31 C         140.3591  138.1044  162.0125 C.ar    1  UNL1        0.0111
     32 C         141.6354  138.3443  162.7630 C.ar    1  UNL1       -0.0034
@<TRIPOS>BOND
     1    13    14    1
     2    14    15   ar
     3    15    16   ar
     4    16    17   ar
     5    17     7    1
     6     7     8    1
     7     8     9    1
     8     9    10    1
     9    10     1    1
    10     1     2    1
    11     2     3    1
    12     3    22    1
    13    22    23    1
    14     3     4    1
    15     4     5    1
    16     5     6    1
    17     6    25    1
    18    25    26    1
    19    26    27   ar
    20    27    28   ar
    21    28    29   ar
    22    29    30    1
    23    29    31   ar
    24    31    32   ar
    25    10    11    1
    26    11    12    1
    27    17    18   ar
    28    18    14   ar
    29    12     7    1
    30     6     1    1
    31    32    26   ar
    32    13    19    1
    33    13    20    1
    34    23    24    1
    35    18    21    1
@<TRIPOS>MOLECULE
*****
 32 35 0 0 0
SMALL
GASTEIGER

@<TRIPOS>ATOM
      1 N         139.4964  143.2131  162.3145 N.3     1  UNL1       -0.2705
      2 C         140.1562  144.2614  161.4684 C.3     1  UNL1        0.1046
      3 C         139.8558  144.3392  160.0008 C.3     1  UNL1        0.1603
      4 O         138.8956  143.3687  159.3793 O.3     1  UNL1       -0.3508
      5 C         138.2359  142.3203  160.2255 C.3     1  UNL1        0.1584
      6 C         138.5363  142.2426  161.6930 C.3     1  UNL1        0.0917
      7 N         140.3976  142.9797  166.7171 N.pl3   1  UNL1       -0.2784
      8 C         139.1985  143.7420  166.2364 C.3     1  UNL1        0.0950
      9 C         138.8982  143.8198  164.7689 C.3     1  UNL1        0.0375
     10 C         139.7969  143.1352  163.7821 C.3     1  UNL1        0.0610
     11 C         140.9959  142.3729  164.2628 C.3     1  UNL1        0.0375
     12 C         141.2963  142.2952  165.7303 C.3     1  UNL1        0.0950
     13 N         142.3822  141.4416  171.3622 N.pl3   1  UNL1       -0.3277
     14 C         141.6102  142.1949  170.3198 C.ar    1  UNL1        0.2131
     15 N         140.7102  143.3694  170.5663 N.ar    1  UNL1       -0.1121
     16 N         140.1464  143.8062  169.2467 N.ar    1  UNL1       -0.1117
     17 C         140.6980  142.9018  168.1847 C.ar    1  UNL1        0.2194
     18 N         141.6026  141.9060  168.8479 N.ar    1  UNL1       -0.2979
     19 H         142.3221  141.7085  172.3080 H       1  UNL1        0.1451
     20 H         142.9491  140.6804  171.1007 H       1  UNL1        0.1451
     21 H         142.1035  141.1887  168.3964 H       1  UNL1        0.1713
     22 C         140.5155  145.3875  159.1548 C.3     1  UNL1        0.1680
     23 O         141.9568  145.7361  159.3809 O.3     1  UNL1       -0.3795
     24 H         142.0572  146.1456  160.2544 H       1  UNL1        0.2105
     25 C         137.8766  141.1942  162.5391 C.3     1  UNL1        0.0448
     26 C         138.6781  140.0397  163.0632 C.ar    1  UNL1       -0.0207
     27 C         138.5011  139.5866  164.4822 C.ar    1  UNL1       -0.0034
     28 C         139.3026  138.4321  165.0063 C.ar    1  UNL1        0.0111
     29 C         140.2811  137.7307  164.1114 C.ar    1  UNL1        0.0577
     30 CL        141.0826  136.5762  164.6355 Cl      1  UNL1       -0.0822
     31 C         140.4580  138.1838  162.6925 C.ar    1  UNL1        0.0111
     32 C         139.6565  139.3383  162.1684 C.ar    1  UNL1       -0.0034
@<TRIPOS>BOND
     1    13    14    1
     2    14    15   ar
     3    15    16   ar
     4    16    17   ar
     5    17     7    1
     6     7     8    1
     7     8     9    1
     8     9    10    1
     9    10     1    1
    10     1     2    1
    11     2     3    1
    12     3    22    1
    13    22    23    1
    14     3     4    1
    15     4     5    1
    16     5     6    1
    17     6    25    1
    18    25    26    1
    19    26    27   ar
    20    27    28   ar
    21    28    29   ar
    22    29    30    1
    23    29    31   ar
    24    31    32   ar
    25    10    11    1
    26    11    12    1
    27    17    18   ar
    28    18    14   ar
    29    12     7    1
    30     6     1    1
    31    32    26   ar
    32    13    19    1
    33    13    20    1
    34    23    24    1
    35    18    21    1
@<TRIPOS>MOLECULE
*****
 32 35 0 0 0
SMALL
GASTEIGER

@<TRIPOS>ATOM
      1 N         142.8093  140.3986  166.3416 N.3     1  UNL1       -0.2705
      2 C         142.7197  139.3265  167.3869 C.3     1  UNL1        0.1046
      3 C         142.7433  139.6931  168.8413 C.3     1  UNL1        0.1603
      4 O         142.8565  141.1319  169.2503 O.3     1  UNL1       -0.3508
      5 C         142.9461  142.2039  168.2049 C.3     1  UNL1        0.1584
      6 C         142.9225  141.8373  166.7506 C.3     1  UNL1        0.0917
      7 N         142.7385  139.2987  161.9787 N.pl3   1  UNL1       -0.2784
      8 C         144.0492  139.4808  162.6850 C.3     1  UNL1        0.0950
      9 C         144.0727  139.8475  164.1393 C.3     1  UNL1        0.0375
     10 C         142.7856  140.0319  164.8873 C.3     1  UNL1        0.0610
     11 C         141.4750  139.8498  164.1809 C.3     1  UNL1        0.0375
     12 C         141.4514  139.4832  162.7266 C.3     1  UNL1        0.0950
     13 N         141.1064  137.5927  157.2556 N.pl3   1  UNL1       -0.3277
     14 C         141.9647  138.1479  158.3534 C.ar    1  UNL1        0.2131
     15 N         143.3925  138.5879  158.2193 N.ar    1  UNL1       -0.1121
     16 N         143.8561  139.0725  159.5610 N.ar    1  UNL1       -0.1117
     17 C         142.7149  138.9321  160.5243 C.ar    1  UNL1        0.2194
     18 N         141.5460  138.3606  159.7780 N.ar    1  UNL1       -0.2979
     19 H         141.4734  137.4903  156.3479 H       1  UNL1        0.1451
     20 H         140.1761  137.3307  157.4429 H       1  UNL1        0.1451
     21 H         140.6596  138.1603  160.1566 H       1  UNL1        0.1713
     22 C         142.6537  138.6211  169.8865 C.3     1  UNL1        0.1680
     23 O         143.6451  138.5858  171.0116 O.3     1  UNL1       -0.3795
     24 H         144.5281  138.3949  170.6586 H       1  UNL1        0.2105
     25 C         143.0121  142.9093  165.7053 C.3     1  UNL1        0.0448
     26 C         141.7726  143.3750  165.0004 C.ar    1  UNL1       -0.0207
     27 C         140.4256  143.1379  165.6164 C.ar    1  UNL1       -0.0034
     28 C         139.1861  143.6035  164.9115 C.ar    1  UNL1        0.0111
     29 C         139.2937  144.3064  163.5907 C.ar    1  UNL1        0.0577
     30 CL        138.0542  144.7720  162.8858 Cl      1  UNL1       -0.0822
     31 C         140.6406  144.5435  162.9748 C.ar    1  UNL1        0.0111
     32 C         141.8801  144.0778  163.6796 C.ar    1  UNL1       -0.0034
@<TRIPOS>BOND
     1    13    14    1
     2    14    15   ar
     3    15    16   ar
     4    16    17   ar
     5    17     7    1
     6     7     8    1
     7     8     9    1
     8     9    10    1
     9    10     1    1
    10     1     2    1
    11     2     3    1
    12     3    22    1
    13    22    23    1
    14     3     4    1
    15     4     5    1
    16     5     6    1
    17     6    25    1
    18    25    26    1
    19    26    27   ar
    20    27    28   ar
    21    28    29   ar
    22    29    30    1
    23    29    31   ar
    24    31    32   ar
    25    10    11    1
    26    11    12    1
    27    17    18   ar
    28    18    14   ar
    29    12     7    1
    30     6     1    1
    31    32    26   ar
    32    13    19    1
    33    13    20    1
    34    23    24    1
    35    18    21    1
@<TRIPOS>MOLECULE
*****
 32 35 0 0 0
SMALL
GASTEIGER

@<TRIPOS>ATOM
      1 N         139.9775  139.2563  160.0741 N.3     1  UNL1       -0.2705
      2 C         138.9911  139.8418  159.1077 C.3     1  UNL1        0.1046
      3 C         139.2988  139.8586  157.6396 C.3     1  UNL1        0.1603
      4 O         140.5930  139.2899  157.1381 O.3     1  UNL1       -0.3508
      5 C         141.5795  138.7044  158.1046 C.3     1  UNL1        0.1584
      6 C         141.2718  138.6876  159.5726 C.3     1  UNL1        0.0917
      7 N         139.0544  139.2059  164.4781 N.pl3   1  UNL1       -0.2784
      8 C         139.6124  140.4449  163.8429 C.3     1  UNL1        0.0950
      9 C         139.9201  140.4617  162.3750 C.3     1  UNL1        0.0375
     10 C         139.6698  139.2395  161.5422 C.3     1  UNL1        0.0610
     11 C         139.1119  138.0004  162.1773 C.3     1  UNL1        0.0375
     12 C         138.8042  137.9837  163.6453 C.3     1  UNL1        0.0950
     13 N         139.3091  140.1152  169.6733 N.pl3   1  UNL1       -0.3277
     14 C         138.8638  139.6070  168.3341 C.ar    1  UNL1        0.2131
     15 N         137.6825  138.7192  168.0763 N.ar    1  UNL1       -0.1121
     16 N         137.6102  138.4609  166.6005 N.ar    1  UNL1       -0.1117
     17 C         138.7467  139.1891  165.9462 C.ar    1  UNL1        0.2194
     18 N         139.5215  139.8974  167.0176 N.ar    1  UNL1       -0.2979
     19 H         138.8093  139.8681  170.4846 H       1  UNL1        0.1451
     20 H         140.1013  140.6959  169.7408 H       1  UNL1        0.1451
     21 H         140.3212  140.4550  166.8808 H       1  UNL1        0.1713
     22 C         138.3123  140.4441  156.6732 C.3     1  UNL1        0.1680
     23 O         136.8423  140.3632  156.9606 O.3     1  UNL1       -0.3795
     24 H         136.5593  139.4356  156.9395 H       1  UNL1        0.2105
     25 C         142.2583  138.1021  160.5391 C.3     1  UNL1        0.0448
     26 C         143.1475  139.0045  161.3422 C.ar    1  UNL1       -0.0207
     27 C         143.5766  138.6007  162.7217 C.ar    1  UNL1       -0.0034
     28 C         144.4657  139.5032  163.5248 C.ar    1  UNL1        0.0111
     29 C         144.9258  140.8094  162.9484 C.ar    1  UNL1        0.0577
     30 CL        145.8150  141.7118  163.7515 Cl      1  UNL1       -0.0822
     31 C         144.4968  141.2131  161.5689 C.ar    1  UNL1        0.0111
     32 C         143.6076  140.3107  160.7658 C.ar    1  UNL1       -0.0034
@<TRIPOS>BOND
     1    13    14    1
     2    14    15   ar
     3    15    16   ar
     4    16    17   ar
     5    17     7    1
     6     7     8    1
     7     8     9    1
     8     9    10    1
     9    10     1    1
    10     1     2    1
    11     2     3    1
    12     3    22    1
    13    22    23    1
    14     3     4    1
    15     4     5    1
    16     5     6    1
    17     6    25    1
    18    25    26    1
    19    26    27   ar
    20    27    28   ar
    21    28    29   ar
    22    29    30    1
    23    29    31   ar
    24    31    32   ar
    25    10    11    1
    26    11    12    1
    27    17    18   ar
    28    18    14   ar
    29    12     7    1
    30     6     1    1
    31    32    26   ar
    32    13    19    1
    33    13    20    1
    34    23    24    1
    35    18    21    1
