@<TRIPOS>MOLECULE
*****
 37 40 0 0 0
SMALL
GASTEIGER

@<TRIPOS>ATOM
      1 C         140.5230  140.2397  160.1911 C.3     1  UNL1        0.0940
      2 N         142.6127  138.8121  164.9707 N.3     1  UNL1       -0.2619
      3 C         142.8443  139.9622  164.0361 C.3     1  UNL1        0.0943
      4 C         142.0705  140.0547  162.7545 C.3     1  UNL1        0.1107
      5 N         141.0651  138.9971  162.4074 N.am    1  UNL1       -0.2767
      6 C         140.2913  139.0896  161.1257 C.2     1  UNL1        0.2264
      7 O         139.2859  138.0319  160.7786 O.2     1  UNL1       -0.2748
      8 C         140.8334  137.8469  163.3420 C.3     1  UNL1        0.1107
      9 C         141.6072  137.7544  164.6236 C.3     1  UNL1        0.0943
     10 C         143.3864  138.7196  166.2524 C.3     1  UNL1        0.1588
     11 C         141.1681  139.9528  169.1890 C.ar    1  UNL1        0.1969
     12 C         142.2404  139.2088  169.9283 C.ar    1  UNL1        0.2068
     13 O         143.2019  138.6563  168.9183 O.2     1  UNL1       -0.4336
     14 C         142.7239  139.0588  167.5547 C.ar    1  UNL1        0.2224
     15 N         141.4669  139.8600  167.7220 N.ar    1  UNL1       -0.2042
     16 C         140.0017  140.6645  169.8079 C.2     1  UNL1        0.3625
     17 O         138.9733  139.8902  170.5779 O.2     1  UNL1       -0.2431
     18 C         141.0683  143.0334  169.7956 C.3     1  UNL1        0.2560
     19 O         139.8637  142.1504  169.6569 O.3     1  UNL1       -0.4402
     20 C         139.5398  141.3714  160.1363 C.3     1  UNL1        0.0536
     21 C         138.8087  141.6685  158.8606 C.ar    1  UNL1       -0.0178
     22 C         137.7848  140.7035  158.3408 C.ar    1  UNL1       -0.0016
     23 C         137.0537  141.0007  157.0652 C.ar    1  UNL1        0.0293
     24 C         137.3465  142.2628  156.3094 C.ar    1  UNL1        0.1401
     25 F         136.6154  142.5600  155.0338 F       1  UNL1       -0.2042
     26 C         138.3705  143.2279  156.8292 C.ar    1  UNL1        0.0293
     27 C         139.1016  142.9307  158.1049 C.ar    1  UNL1       -0.0016
     28 C         139.2878  142.2058  161.3570 C.ar    1  UNL1       -0.0180
     29 C         140.3548  143.1275  161.8688 C.ar    1  UNL1       -0.0040
     30 C         140.1028  143.9619  163.0895 C.ar    1  UNL1        0.0035
     31 C         138.7838  143.8746  163.7985 C.ar    1  UNL1        0.0714
     32 C         137.7168  142.9529  163.2867 C.ar    1  UNL1        0.0035
     33 C         137.9689  142.1184  162.0659 C.ar    1  UNL1       -0.0040
     34 C         138.5318  144.7090  165.0192 C.3     1  UNL1        0.4186
     35 F         138.2798  145.5434  166.2400 F       1  UNL1       -0.1659
     36 F         137.0945  144.2799  165.0159 F       1  UNL1       -0.1659
     37 F         139.9691  145.1382  165.0226 F       1  UNL1       -0.1659
@<TRIPOS>BOND
     1    18    19    1
     2    19    16    1
     3    16    17    2
     4    16    11    1
     5    11    12   ar
     6    12    13   ar
     7    13    14   ar
     8    14    10    1
     9    10     2    1
    10     2     3    1
    11     3     4    1
    12     4     5    1
    13     5     6   am
    14     6     7    2
    15     6     1    1
    16     1    20    1
    17    20    21    1
    18    21    22   ar
    19    22    23   ar
    20    23    24   ar
    21    24    25    1
    22    24    26   ar
    23    26    27   ar
    24    20    28    1
    25    28    29   ar
    26    29    30   ar
    27    30    31   ar
    28    31    34    1
    29    34    35    1
    30    34    36    1
    31    34    37    1
    32    31    32   ar
    33    32    33   ar
    34     5     8    1
    35     8     9    1
    36    14    15   ar
    37    15    11   ar
    38     9     2    1
    39    27    21   ar
    40    33    28   ar
@<TRIPOS>MOLECULE
*****
 37 40 0 0 0
SMALL
GASTEIGER

@<TRIPOS>ATOM
      1 C         143.7427  140.1600  165.0211 C.3     1  UNL1        0.0940
      2 N         143.0590  139.1227  159.7574 N.3     1  UNL1       -0.2619
      3 C         143.6936  140.2462  160.5222 C.3     1  UNL1        0.0943
      4 C         143.7100  140.2175  162.0218 C.3     1  UNL1        0.1107
      5 N         143.0916  139.0652  162.7566 N.am    1  UNL1       -0.2767
      6 C         143.1080  139.0365  164.2563 C.2     1  UNL1        0.2264
      7 O         142.4896  137.8843  164.9912 O.2     1  UNL1       -0.2748
      8 C         142.4569  137.9417  161.9919 C.3     1  UNL1        0.1107
      9 C         142.4406  137.9705  160.4923 C.3     1  UNL1        0.0943
     10 C         143.0426  139.1514  158.2577 C.3     1  UNL1        0.1588
     11 C         142.2894  135.7635  156.5199 C.ar    1  UNL1        0.1969
     12 C         141.0991  136.5748  156.1016 C.ar    1  UNL1        0.2068
     13 O         141.2364  137.9426  156.7017 O.2     1  UNL1       -0.4336
     14 C         142.5115  137.9768  157.4909 C.ar    1  UNL1        0.2224
     15 N         143.1624  136.6300  157.3785 N.ar    1  UNL1       -0.2042
     16 C         142.5594  134.3363  156.1454 C.2     1  UNL1        0.3625
     17 O         142.5723  133.9294  154.7017 O.2     1  UNL1       -0.2431
     18 C         144.2249  132.9548  157.5833 C.3     1  UNL1        0.2560
     19 O         142.8165  133.3161  157.2144 O.3     1  UNL1       -0.4402
     20 C         142.8831  141.1669  165.7264 C.3     1  UNL1        0.0536
     21 C         142.7067  141.0914  167.2141 C.ar    1  UNL1       -0.0178
     22 C         143.1652  142.2254  168.0823 C.ar    1  UNL1       -0.0016
     23 C         142.9888  142.1499  169.5699 C.ar    1  UNL1        0.0293
     24 C         142.3538  140.9404  170.1895 C.ar    1  UNL1        0.1401
     25 F         142.1774  140.8649  171.6772 F       1  UNL1       -0.2042
     26 C         141.8952  139.8063  169.3213 C.ar    1  UNL1        0.0293
     27 C         142.0716  139.8818  167.8337 C.ar    1  UNL1       -0.0016
     28 C         142.1999  142.2491  164.9441 C.ar    1  UNL1       -0.0180
     29 C         142.9664  143.4675  164.5222 C.ar    1  UNL1       -0.0040
     30 C         142.2833  144.5497  163.7399 C.ar    1  UNL1        0.0035
     31 C         140.8336  144.4136  163.3795 C.ar    1  UNL1        0.0714
     32 C         140.0671  143.1952  163.8014 C.ar    1  UNL1        0.0035
     33 C         140.7503  142.1130  164.5837 C.ar    1  UNL1       -0.0040
     34 C         140.1504  145.4958  162.5972 C.3     1  UNL1        0.4186
     35 F         139.4673  146.5781  161.8149 F       1  UNL1       -0.1659
     36 F         139.0112  145.4819  163.5728 F       1  UNL1       -0.1659
     37 F         141.2897  145.5098  161.6216 F       1  UNL1       -0.1659
@<TRIPOS>BOND
     1    18    19    1
     2    19    16    1
     3    16    17    2
     4    16    11    1
     5    11    12   ar
     6    12    13   ar
     7    13    14   ar
     8    14    10    1
     9    10     2    1
    10     2     3    1
    11     3     4    1
    12     4     5    1
    13     5     6   am
    14     6     7    2
    15     6     1    1
    16     1    20    1
    17    20    21    1
    18    21    22   ar
    19    22    23   ar
    20    23    24   ar
    21    24    25    1
    22    24    26   ar
    23    26    27   ar
    24    20    28    1
    25    28    29   ar
    26    29    30   ar
    27    30    31   ar
    28    31    34    1
    29    34    35    1
    30    34    36    1
    31    34    37    1
    32    31    32   ar
    33    32    33   ar
    34     5     8    1
    35     8     9    1
    36    14    15   ar
    37    15    11   ar
    38     9     2    1
    39    27    21   ar
    40    33    28   ar
@<TRIPOS>MOLECULE
*****
 37 40 0 0 0
SMALL
GASTEIGER

@<TRIPOS>ATOM
      1 C         142.6259  139.2978  164.9746 C.3     1  UNL1        0.0940
      2 N         142.3783  138.9875  159.5810 N.3     1  UNL1       -0.2619
      3 C         141.4337  138.6242  160.6881 C.3     1  UNL1        0.0943
      4 C         141.8311  138.8487  162.1169 C.3     1  UNL1        0.1107
      5 N         143.1731  139.4365  162.4386 N.am    1  UNL1       -0.2767
      6 C         143.5705  139.6611  163.8675 C.2     1  UNL1        0.2264
      7 O         144.9125  140.2489  164.1893 O.2     1  UNL1       -0.2748
      8 C         144.1177  139.7998  161.3315 C.3     1  UNL1        0.1107
      9 C         143.7203  139.5753  159.9027 C.3     1  UNL1        0.0943
     10 C         141.9809  138.7630  158.1520 C.3     1  UNL1        0.1588
     11 C         143.0268  135.1986  157.0265 C.ar    1  UNL1        0.1969
     12 C         141.8865  135.4749  156.0918 C.ar    1  UNL1        0.2068
     13 O         141.3560  136.8437  156.3997 O.2     1  UNL1       -0.4336
     14 C         142.1683  137.4135  157.5246 C.ar    1  UNL1        0.2224
     15 N         143.2009  136.3967  157.9120 N.ar    1  UNL1       -0.2042
     16 C         143.8485  133.9444  157.0683 C.2     1  UNL1        0.3625
     17 O         144.4887  133.5097  158.3533 O.2     1  UNL1       -0.2431
     18 C         144.5456  131.7197  155.9219 C.3     1  UNL1        0.2560
     19 O         144.0301  133.1250  155.8252 O.3     1  UNL1       -0.4402
     20 C         141.8163  140.3647  165.6502 C.3     1  UNL1        0.0536
     21 C         141.3848  140.1889  167.0760 C.ar    1  UNL1       -0.0178
     22 C         139.9840  140.5369  167.4840 C.ar    1  UNL1       -0.0016
     23 C         139.5525  140.3612  168.9098 C.ar    1  UNL1        0.0293
     24 C         140.5218  139.8373  169.9276 C.ar    1  UNL1        0.1401
     25 F         140.0903  139.6615  171.3534 F       1  UNL1       -0.2042
     26 C         141.9227  139.4892  169.5196 C.ar    1  UNL1        0.0293
     27 C         142.3542  139.6650  168.0938 C.ar    1  UNL1       -0.0016
     28 C         141.4383  141.6073  164.9000 C.ar    1  UNL1       -0.0180
     29 C         142.2101  142.8758  165.1126 C.ar    1  UNL1       -0.0040
     30 C         141.8320  144.1185  164.3624 C.ar    1  UNL1        0.0035
     31 C         140.6821  144.0926  163.3994 C.ar    1  UNL1        0.0714
     32 C         139.9103  142.8241  163.1868 C.ar    1  UNL1        0.0035
     33 C         140.2884  141.5814  163.9371 C.ar    1  UNL1       -0.0040
     34 C         140.3041  145.3352  162.6492 C.3     1  UNL1        0.4186
     35 F         139.9260  146.5779  161.8990 F       1  UNL1       -0.1659
     36 F         141.5917  145.9802  163.0686 F       1  UNL1       -0.1659
     37 F         139.0164  144.6903  162.2298 F       1  UNL1       -0.1659
@<TRIPOS>BOND
     1    18    19    1
     2    19    16    1
     3    16    17    2
     4    16    11    1
     5    11    12   ar
     6    12    13   ar
     7    13    14   ar
     8    14    10    1
     9    10     2    1
    10     2     3    1
    11     3     4    1
    12     4     5    1
    13     5     6   am
    14     6     7    2
    15     6     1    1
    16     1    20    1
    17    20    21    1
    18    21    22   ar
    19    22    23   ar
    20    23    24   ar
    21    24    25    1
    22    24    26   ar
    23    26    27   ar
    24    20    28    1
    25    28    29   ar
    26    29    30   ar
    27    30    31   ar
    28    31    34    1
    29    34    35    1
    30    34    36    1
    31    34    37    1
    32    31    32   ar
    33    32    33   ar
    34     5     8    1
    35     8     9    1
    36    14    15   ar
    37    15    11   ar
    38     9     2    1
    39    27    21   ar
    40    33    28   ar
@<TRIPOS>MOLECULE
*****
 37 40 0 0 0
SMALL
GASTEIGER

@<TRIPOS>ATOM
      1 C         138.3717  140.2731  165.2310 C.3     1  UNL1        0.0940
      2 N         139.0247  139.4663  159.9233 N.3     1  UNL1       -0.2619
      3 C         138.7475  140.6765  160.7649 C.3     1  UNL1        0.0943
      4 C         138.6222  140.5420  162.2536 C.3     1  UNL1        0.1107
      5 N         138.7742  139.1973  162.9006 N.am    1  UNL1       -0.2767
      6 C         138.6489  139.0629  164.3894 C.2     1  UNL1        0.2264
      7 O         138.8008  137.7181  165.0364 O.2     1  UNL1       -0.2748
      8 C         139.0514  137.9871  162.0590 C.3     1  UNL1        0.1107
      9 C         139.1767  138.1216  160.5703 C.3     1  UNL1        0.0943
     10 C         139.1500  139.6007  158.4345 C.3     1  UNL1        0.1588
     11 C         136.5366  141.4348  156.2274 C.ar    1  UNL1        0.1969
     12 C         137.2465  142.5947  156.8604 C.ar    1  UNL1        0.2068
     13 O         138.3119  142.0488  157.7642 O.2     1  UNL1       -0.4336
     14 C         138.2605  140.5515  157.6899 C.ar    1  UNL1        0.2224
     15 N         137.1632  140.1720  156.7400 N.ar    1  UNL1       -0.2042
     16 C         135.3996  141.5222  155.2529 C.2     1  UNL1        0.3625
     17 O         135.6516  141.9743  153.8450 O.2     1  UNL1       -0.2431
     18 C         133.6411  139.7178  155.8864 C.3     1  UNL1        0.2560
     19 O         134.0107  141.1577  155.6862 O.3     1  UNL1       -0.4402
     20 C         139.4989  141.1700  165.6493 C.3     1  UNL1        0.0536
     21 C         139.7495  142.4528  164.9133 C.ar    1  UNL1       -0.0178
     22 C         141.1287  142.7784  164.4218 C.ar    1  UNL1       -0.0016
     23 C         141.3792  144.0611  163.6857 C.ar    1  UNL1        0.0293
     24 C         140.2505  145.0183  163.4413 C.ar    1  UNL1        0.1401
     25 F         140.5010  146.3011  162.7052 F       1  UNL1       -0.2042
     26 C         138.8712  144.6927  163.9328 C.ar    1  UNL1        0.0293
     27 C         138.6207  143.4100  164.6689 C.ar    1  UNL1       -0.0016
     28 C         140.3756  140.7841  166.8036 C.ar    1  UNL1       -0.0180
     29 C         141.5272  139.8469  166.5903 C.ar    1  UNL1       -0.0040
     30 C         142.4039  139.4610  167.7446 C.ar    1  UNL1        0.0035
     31 C         142.1290  140.0123  169.1123 C.ar    1  UNL1        0.0714
     32 C         140.9774  140.9495  169.3257 C.ar    1  UNL1        0.0035
     33 C         140.1007  141.3354  168.1713 C.ar    1  UNL1       -0.0040
     34 C         143.0057  139.6264  170.2666 C.3     1  UNL1        0.4186
     35 F         143.8824  139.2405  171.4209 F       1  UNL1       -0.1659
     36 F         142.3985  138.2548  170.2692 F       1  UNL1       -0.1659
     37 F         143.6129  140.9980  170.2640 F       1  UNL1       -0.1659
@<TRIPOS>BOND
     1    18    19    1
     2    19    16    1
     3    16    17    2
     4    16    11    1
     5    11    12   ar
     6    12    13   ar
     7    13    14   ar
     8    14    10    1
     9    10     2    1
    10     2     3    1
    11     3     4    1
    12     4     5    1
    13     5     6   am
    14     6     7    2
    15     6     1    1
    16     1    20    1
    17    20    21    1
    18    21    22   ar
    19    22    23   ar
    20    23    24   ar
    21    24    25    1
    22    24    26   ar
    23    26    27   ar
    24    20    28    1
    25    28    29   ar
    26    29    30   ar
    27    30    31   ar
    28    31    34    1
    29    34    35    1
    30    34    36    1
    31    34    37    1
    32    31    32   ar
    33    32    33   ar
    34     5     8    1
    35     8     9    1
    36    14    15   ar
    37    15    11   ar
    38     9     2    1
    39    27    21   ar
    40    33    28   ar
@<TRIPOS>MOLECULE
*****
 37 40 0 0 0
SMALL
GASTEIGER

@<TRIPOS>ATOM
      1 C         140.6991  139.7236  165.8182 C.3     1  UNL1        0.0940
      2 N         139.5136  138.9898  160.5927 N.3     1  UNL1       -0.2619
      3 C         140.6023  139.7224  161.3193 C.3     1  UNL1        0.0943
      4 C         140.6345  139.7228  162.8189 C.3     1  UNL1        0.1107
      5 N         139.5781  138.9905  163.5920 N.am    1  UNL1       -0.2767
      6 C         139.6104  138.9909  165.0917 C.2     1  UNL1        0.2264
      7 O         138.5539  138.2586  165.8648 O.2     1  UNL1       -0.2748
      8 C         138.4894  138.2579  162.8654 C.3     1  UNL1        0.1107
      9 C         138.4572  138.2575  161.3658 C.3     1  UNL1        0.0943
     10 C         139.4813  138.9894  159.0930 C.3     1  UNL1        0.1588
     11 C         138.8034  142.3638  157.2988 C.ar    1  UNL1        0.1969
     12 C         137.4801  141.6768  157.1341 C.ar    1  UNL1        0.2068
     13 O         137.5730  140.3292  157.7861 O.2     1  UNL1       -0.4336
     14 C         138.9537  140.1832  158.3539 C.ar    1  UNL1        0.2224
     15 N         139.7141  141.4406  158.0527 N.ar    1  UNL1       -0.2042
     16 C         139.1543  143.7333  156.7977 C.2     1  UNL1        0.3625
     17 O         138.2553  144.4263  155.8170 O.2     1  UNL1       -0.2431
     18 C         140.3518  145.3312  158.4598 C.3     1  UNL1        0.2560
     19 O         140.4041  144.4100  157.2772 O.3     1  UNL1       -0.4402
     20 C         140.4597  141.1165  166.3208 C.3     1  UNL1        0.0536
     21 C         140.4587  141.3920  167.7952 C.ar    1  UNL1       -0.0178
     22 C         140.5655  142.8023  168.2948 C.ar    1  UNL1       -0.0016
     23 C         140.5645  143.0779  169.7692 C.ar    1  UNL1        0.0293
     24 C         140.4567  141.9431  170.7442 C.ar    1  UNL1        0.1401
     25 F         140.4557  142.2186  172.2187 F       1  UNL1       -0.2042
     26 C         140.3498  140.5327  170.2447 C.ar    1  UNL1        0.0293
     27 C         140.3508  140.2572  168.7702 C.ar    1  UNL1       -0.0016
     28 C         140.2213  142.2339  165.3488 C.ar    1  UNL1       -0.0180
     29 C         138.8220  142.5840  164.9371 C.ar    1  UNL1       -0.0040
     30 C         138.5836  143.7013  163.9651 C.ar    1  UNL1        0.0035
     31 C         139.7445  144.4686  163.4049 C.ar    1  UNL1        0.0714
     32 C         141.1438  144.1185  163.8167 C.ar    1  UNL1        0.0035
     33 C         141.3821  143.0011  164.7887 C.ar    1  UNL1       -0.0040
     34 C         139.5061  145.5859  162.4330 C.3     1  UNL1        0.4186
     35 F         139.2677  146.7033  161.4611 F       1  UNL1       -0.1659
     36 F         138.0326  145.3087  162.4757 F       1  UNL1       -0.1659
     37 F         140.9796  145.8632  162.3903 F       1  UNL1       -0.1659
@<TRIPOS>BOND
     1    18    19    1
     2    19    16    1
     3    16    17    2
     4    16    11    1
     5    11    12   ar
     6    12    13   ar
     7    13    14   ar
     8    14    10    1
     9    10     2    1
    10     2     3    1
    11     3     4    1
    12     4     5    1
    13     5     6   am
    14     6     7    2
    15     6     1    1
    16     1    20    1
    17    20    21    1
    18    21    22   ar
    19    22    23   ar
    20    23    24   ar
    21    24    25    1
    22    24    26   ar
    23    26    27   ar
    24    20    28    1
    25    28    29   ar
    26    29    30   ar
    27    30    31   ar
    28    31    34    1
    29    34    35    1
    30    34    36    1
    31    34    37    1
    32    31    32   ar
    33    32    33   ar
    34     5     8    1
    35     8     9    1
    36    14    15   ar
    37    15    11   ar
    38     9     2    1
    39    27    21   ar
    40    33    28   ar
@<TRIPOS>MOLECULE
*****
 37 40 0 0 0
SMALL
GASTEIGER

@<TRIPOS>ATOM
      1 C         141.6295  138.5049  165.0541 C.3     1  UNL1        0.0940
      2 N         142.0188  138.9807  159.6808 N.3     1  UNL1       -0.2619
      3 C         143.0071  139.0608  160.8063 C.3     1  UNL1        0.0943
      4 C         142.5479  138.8755  162.2222 C.3     1  UNL1        0.1107
      5 N         141.1004  138.6101  162.5126 N.am    1  UNL1       -0.2767
      6 C         140.6412  138.4248  163.9285 C.2     1  UNL1        0.2264
      7 O         139.1937  138.1594  164.2189 O.2     1  UNL1       -0.2748
      8 C         140.1121  138.5300  161.3871 C.3     1  UNL1        0.1107
      9 C         140.5713  138.7153  159.9712 C.3     1  UNL1        0.0943
     10 C         142.4780  139.1660  158.2649 C.3     1  UNL1        0.1588
     11 C         142.9014  135.7274  156.5150 C.ar    1  UNL1        0.1969
     12 C         143.9317  136.5472  155.7963 C.ar    1  UNL1        0.2068
     13 O         143.8985  137.9351  156.3644 O.2     1  UNL1       -0.4336
     14 C         142.8477  137.9731  157.4341 C.ar    1  UNL1        0.2224
     15 N         142.2314  136.6087  157.5271 N.ar    1  UNL1       -0.2042
     16 C         142.5949  134.2805  156.2652 C.2     1  UNL1        0.3625
     17 O         141.9502  133.8618  154.9771 O.2     1  UNL1       -0.2431
     18 C         144.3359  133.1442  157.8233 C.3     1  UNL1        0.2560
     19 O         142.9330  133.2521  157.3035 O.3     1  UNL1       -0.4402
     20 C         141.7504  139.7657  165.8577 C.3     1  UNL1        0.0536
     21 C         141.3175  139.7841  167.2938 C.ar    1  UNL1       -0.0178
     22 C         139.8964  140.1115  167.6446 C.ar    1  UNL1       -0.0016
     23 C         139.4635  140.1299  169.0807 C.ar    1  UNL1        0.0293
     24 C         140.4518  139.8209  170.1659 C.ar    1  UNL1        0.1401
     25 F         140.0189  139.8392  171.6020 F       1  UNL1       -0.2042
     26 C         141.8730  139.4934  169.8151 C.ar    1  UNL1        0.0293
     27 C         142.3059  139.4751  168.3791 C.ar    1  UNL1       -0.0016
     28 C         142.3041  141.0080  165.2254 C.ar    1  UNL1       -0.0180
     29 C         141.3738  142.0632  164.7047 C.ar    1  UNL1       -0.0040
     30 C         141.9276  143.3056  164.0723 C.ar    1  UNL1        0.0035
     31 C         143.4117  143.4927  163.9606 C.ar    1  UNL1        0.0714
     32 C         144.3420  142.4375  164.4812 C.ar    1  UNL1        0.0035
     33 C         143.7882  141.1951  165.1136 C.ar    1  UNL1       -0.0040
     34 C         143.9654  144.7351  163.3282 C.3     1  UNL1        0.4186
     35 F         144.5192  145.9774  162.6958 F       1  UNL1       -0.1659
     36 F         143.9025  144.0776  161.9815 F       1  UNL1       -0.1659
     37 F         144.0283  145.3925  164.6749 F       1  UNL1       -0.1659
@<TRIPOS>BOND
     1    18    19    1
     2    19    16    1
     3    16    17    2
     4    16    11    1
     5    11    12   ar
     6    12    13   ar
     7    13    14   ar
     8    14    10    1
     9    10     2    1
    10     2     3    1
    11     3     4    1
    12     4     5    1
    13     5     6   am
    14     6     7    2
    15     6     1    1
    16     1    20    1
    17    20    21    1
    18    21    22   ar
    19    22    23   ar
    20    23    24   ar
    21    24    25    1
    22    24    26   ar
    23    26    27   ar
    24    20    28    1
    25    28    29   ar
    26    29    30   ar
    27    30    31   ar
    28    31    34    1
    29    34    35    1
    30    34    36    1
    31    34    37    1
    32    31    32   ar
    33    32    33   ar
    34     5     8    1
    35     8     9    1
    36    14    15   ar
    37    15    11   ar
    38     9     2    1
    39    27    21   ar
    40    33    28   ar
@<TRIPOS>MOLECULE
*****
 37 40 0 0 0
SMALL
GASTEIGER

@<TRIPOS>ATOM
      1 C         140.6530  139.6659  165.8031 C.3     1  UNL1        0.0940
      2 N         139.6299  139.0250  160.5312 N.3     1  UNL1       -0.2619
      3 C         140.7160  139.7131  161.3038 C.3     1  UNL1        0.0943
      4 C         140.6950  139.6974  162.8035 C.3     1  UNL1        0.1107
      5 N         139.5879  138.9935  163.5307 N.am    1  UNL1       -0.2767
      6 C         139.5669  138.9778  165.0305 C.2     1  UNL1        0.2264
      7 O         138.4598  138.2739  165.7578 O.2     1  UNL1       -0.2748
      8 C         138.5018  138.3054  162.7582 C.3     1  UNL1        0.1107
      9 C         138.5228  138.3211  161.2585 C.3     1  UNL1        0.0943
     10 C         139.6509  139.0407  159.0314 C.3     1  UNL1        0.1588
     11 C         142.7404  137.9522  156.9493 C.ar    1  UNL1        0.1969
     12 C         143.1558  139.3250  157.3884 C.ar    1  UNL1        0.2068
     13 O         142.0490  139.8999  158.2218 O.2     1  UNL1       -0.4336
     14 C         140.9496  138.8823  158.2978 C.ar    1  UNL1        0.2224
     15 N         141.3769  137.6786  157.5114 N.ar    1  UNL1       -0.2042
     16 C         143.5469  137.0171  156.0978 C.2     1  UNL1        0.3625
     17 O         144.9097  137.4238  155.6207 O.2     1  UNL1       -0.2431
     18 C         142.3118  135.4880  154.3989 C.3     1  UNL1        0.2560
     19 O         142.9908  135.6754  155.7233 O.3     1  UNL1       -0.4402
     20 C         140.4441  141.0625  166.3090 C.3     1  UNL1        0.0536
     21 C         140.4540  141.3352  167.7840 C.ar    1  UNL1       -0.0178
     22 C         140.3479  140.1990  168.7575 C.ar    1  UNL1       -0.0016
     23 C         140.3578  140.4717  170.2324 C.ar    1  UNL1        0.0293
     24 C         140.4739  141.8805  170.7339 C.ar    1  UNL1        0.1401
     25 F         140.4838  142.1532  172.2089 F       1  UNL1       -0.2042
     26 C         140.5800  143.0168  169.7604 C.ar    1  UNL1        0.0293
     27 C         140.5701  142.7442  168.2855 C.ar    1  UNL1       -0.0016
     28 C         140.2253  142.1864  165.3400 C.ar    1  UNL1       -0.0180
     29 C         138.8308  142.5957  164.9686 C.ar    1  UNL1       -0.0040
     30 C         138.6120  143.7195  163.9995 C.ar    1  UNL1        0.0035
     31 C         139.7877  144.4342  163.4019 C.ar    1  UNL1        0.0714
     32 C         141.1822  144.0249  163.7734 C.ar    1  UNL1        0.0035
     33 C         141.4010  142.9010  164.7424 C.ar    1  UNL1       -0.0040
     34 C         139.5689  145.5580  162.4329 C.3     1  UNL1        0.4186
     35 F         139.3501  146.6819  161.4639 F       1  UNL1       -0.1659
     36 F         138.0988  145.2605  162.4198 F       1  UNL1       -0.1659
     37 F         141.0390  145.8555  162.4460 F       1  UNL1       -0.1659
@<TRIPOS>BOND
     1    18    19    1
     2    19    16    1
     3    16    17    2
     4    16    11    1
     5    11    12   ar
     6    12    13   ar
     7    13    14   ar
     8    14    10    1
     9    10     2    1
    10     2     3    1
    11     3     4    1
    12     4     5    1
    13     5     6   am
    14     6     7    2
    15     6     1    1
    16     1    20    1
    17    20    21    1
    18    21    22   ar
    19    22    23   ar
    20    23    24   ar
    21    24    25    1
    22    24    26   ar
    23    26    27   ar
    24    20    28    1
    25    28    29   ar
    26    29    30   ar
    27    30    31   ar
    28    31    34    1
    29    34    35    1
    30    34    36    1
    31    34    37    1
    32    31    32   ar
    33    32    33   ar
    34     5     8    1
    35     8     9    1
    36    14    15   ar
    37    15    11   ar
    38     9     2    1
    39    27    21   ar
    40    33    28   ar
@<TRIPOS>MOLECULE
*****
 37 40 0 0 0
SMALL
GASTEIGER

@<TRIPOS>ATOM
      1 C         138.7112  142.9487  160.7627 C.3     1  UNL1        0.0940
      2 N         138.6692  139.8085  165.1657 N.3     1  UNL1       -0.2619
      3 C         138.7872  141.2873  164.9441 C.3     1  UNL1        0.0943
      4 C         138.7619  141.8411  163.5503 C.3     1  UNL1        0.1107
      5 N         138.6185  140.9161  162.3782 N.am    1  UNL1       -0.2767
      6 C         138.5932  141.4699  160.9844 C.2     1  UNL1        0.2264
      7 O         138.4498  140.5449  159.8123 O.2     1  UNL1       -0.2748
      8 C         138.5005  139.4373  162.5999 C.3     1  UNL1        0.1107
      9 C         138.5258  138.8835  163.9937 C.3     1  UNL1        0.0943
     10 C         138.6945  139.2546  166.5596 C.3     1  UNL1        0.1588
     11 C         140.5219  140.8726  169.5775 C.ar    1  UNL1        0.1969
     12 C         141.6809  140.5130  168.6956 C.ar    1  UNL1        0.2068
     13 O         141.1373  139.8632  167.4578 O.2     1  UNL1       -0.4336
     14 C         139.6425  139.8211  167.5746 C.ar    1  UNL1        0.2224
     15 N         139.2622  140.4449  168.8846 N.ar    1  UNL1       -0.2042
     16 C         140.6077  141.5422  170.9170 C.2     1  UNL1        0.3625
     17 O         140.7196  140.7149  172.1633 O.2     1  UNL1       -0.2431
     18 C         140.4948  143.8669  169.7625 C.3     1  UNL1        0.2560
     19 O         140.5817  143.0390  171.0103 O.3     1  UNL1       -0.4402
     20 C         140.0504  143.5591  160.4728 C.3     1  UNL1        0.0536
     21 C         140.3668  144.0522  159.0919 C.ar    1  UNL1       -0.0178
     22 C         140.7426  143.0777  158.0154 C.ar    1  UNL1       -0.0016
     23 C         141.0590  143.5707  156.6345 C.ar    1  UNL1        0.0293
     24 C         140.9996  145.0383  156.3302 C.ar    1  UNL1        0.1401
     25 F         141.3160  145.5314  154.9493 F       1  UNL1       -0.2042
     26 C         140.6237  146.0129  157.4068 C.ar    1  UNL1        0.0293
     27 C         140.3073  145.5199  158.7877 C.ar    1  UNL1       -0.0016
     28 C         141.0732  143.6765  161.5638 C.ar    1  UNL1       -0.0180
     29 C         141.0219  144.8321  162.5187 C.ar    1  UNL1       -0.0040
     30 C         142.0446  144.9494  163.6097 C.ar    1  UNL1        0.0035
     31 C         143.1187  143.9111  163.7457 C.ar    1  UNL1        0.0714
     32 C         143.1700  142.7556  162.7907 C.ar    1  UNL1        0.0035
     33 C         142.1471  142.6382  161.6997 C.ar    1  UNL1       -0.0040
     34 C         144.1414  144.0285  164.8366 C.3     1  UNL1        0.4186
     35 F         145.1642  144.1458  165.9275 F       1  UNL1       -0.1659
     36 F         144.1839  142.5340  164.9575 F       1  UNL1       -0.1659
     37 F         144.0989  145.5230  164.7157 F       1  UNL1       -0.1659
@<TRIPOS>BOND
     1    18    19    1
     2    19    16    1
     3    16    17    2
     4    16    11    1
     5    11    12   ar
     6    12    13   ar
     7    13    14   ar
     8    14    10    1
     9    10     2    1
    10     2     3    1
    11     3     4    1
    12     4     5    1
    13     5     6   am
    14     6     7    2
    15     6     1    1
    16     1    20    1
    17    20    21    1
    18    21    22   ar
    19    22    23   ar
    20    23    24   ar
    21    24    25    1
    22    24    26   ar
    23    26    27   ar
    24    20    28    1
    25    28    29   ar
    26    29    30   ar
    27    30    31   ar
    28    31    34    1
    29    34    35    1
    30    34    36    1
    31    34    37    1
    32    31    32   ar
    33    32    33   ar
    34     5     8    1
    35     8     9    1
    36    14    15   ar
    37    15    11   ar
    38     9     2    1
    39    27    21   ar
    40    33    28   ar
@<TRIPOS>MOLECULE
*****
 37 40 0 0 0
SMALL
GASTEIGER

@<TRIPOS>ATOM
      1 C         143.7492  141.1160  164.0977 C.3     1  UNL1        0.0940
      2 N         142.9314  139.2639  159.0827 N.3     1  UNL1       -0.2619
      3 C         143.1133  140.6324  159.6692 C.3     1  UNL1        0.0943
      4 C         143.3253  140.7936  161.1454 C.3     1  UNL1        0.1107
      5 N         143.3553  139.5862  162.0350 N.am    1  UNL1       -0.2767
      6 C         143.5673  139.7475  163.5112 C.2     1  UNL1        0.2264
      7 O         143.5973  138.5401  164.4009 O.2     1  UNL1       -0.2748
      8 C         143.1734  138.2177  161.4485 C.3     1  UNL1        0.1107
      9 C         142.9614  138.0565  159.9724 C.3     1  UNL1        0.0943
     10 C         142.7194  139.1026  157.6065 C.3     1  UNL1        0.1588
     11 C         142.7789  135.4786  156.2179 C.ar    1  UNL1        0.1969
     12 C         144.0581  136.0252  155.6566 C.ar    1  UNL1        0.2068
     13 O         144.1915  137.4492  156.1085 O.2     1  UNL1       -0.4336
     14 C         142.9948  137.7829  156.9490 C.ar    1  UNL1        0.2224
     15 N         142.1217  136.5650  157.0166 N.ar    1  UNL1       -0.2042
     16 C         142.2497  134.0897  156.0159 C.2     1  UNL1        0.3625
     17 O         141.3861  133.7814  154.8288 O.2     1  UNL1       -0.2431
     18 C         144.0178  132.6793  157.2944 C.3     1  UNL1        0.2560
     19 O         142.5842  133.0090  157.0008 O.3     1  UNL1       -0.4402
     20 C         142.5797  141.8340  164.7033 C.3     1  UNL1        0.0536
     21 C         141.9721  143.0085  163.9952 C.ar    1  UNL1       -0.0178
     22 C         142.5437  144.3812  164.1929 C.ar    1  UNL1       -0.0016
     23 C         141.9361  145.5557  163.4847 C.ar    1  UNL1        0.0293
     24 C         140.7571  145.3575  162.5789 C.ar    1  UNL1        0.1401
     25 F         140.1496  146.5320  161.8708 F       1  UNL1       -0.2042
     26 C         140.1855  143.9848  162.3812 C.ar    1  UNL1        0.0293
     27 C         140.7930  142.8103  163.0894 C.ar    1  UNL1       -0.0016
     28 C         142.0177  141.3775  166.0170 C.ar    1  UNL1       -0.0180
     29 C         140.8560  140.4290  166.0469 C.ar    1  UNL1       -0.0040
     30 C         140.2940  139.9726  167.3605 C.ar    1  UNL1        0.0035
     31 C         140.8938  140.4645  168.6444 C.ar    1  UNL1        0.0714
     32 C         142.0555  141.4130  168.6146 C.ar    1  UNL1        0.0035
     33 C         142.6174  141.8695  167.3008 C.ar    1  UNL1       -0.0040
     34 C         140.3318  140.0081  169.9581 C.3     1  UNL1        0.4186
     35 F         139.7699  139.5516  171.2718 F       1  UNL1       -0.1659
     36 F         141.5003  139.0847  170.1371 F       1  UNL1       -0.1659
     37 F         139.1633  140.9314  169.7791 F       1  UNL1       -0.1659
@<TRIPOS>BOND
     1    18    19    1
     2    19    16    1
     3    16    17    2
     4    16    11    1
     5    11    12   ar
     6    12    13   ar
     7    13    14   ar
     8    14    10    1
     9    10     2    1
    10     2     3    1
    11     3     4    1
    12     4     5    1
    13     5     6   am
    14     6     7    2
    15     6     1    1
    16     1    20    1
    17    20    21    1
    18    21    22   ar
    19    22    23   ar
    20    23    24   ar
    21    24    25    1
    22    24    26   ar
    23    26    27   ar
    24    20    28    1
    25    28    29   ar
    26    29    30   ar
    27    30    31   ar
    28    31    34    1
    29    34    35    1
    30    34    36    1
    31    34    37    1
    32    31    32   ar
    33    32    33   ar
    34     5     8    1
    35     8     9    1
    36    14    15   ar
    37    15    11   ar
    38     9     2    1
    39    27    21   ar
    40    33    28   ar
