@<TRIPOS>MOLECULE
*****
 34 37 0 0 0
SMALL
GASTEIGER

@<TRIPOS>ATOM
      1 C         139.0840  139.2785  159.9590 C.ar    1  UNL1        0.1633
      2 N         140.1005  138.3826  159.3155 N.ar    1  UNL1       -0.2297
      3 C         140.3246  138.4454  157.8336 C.ar    1  UNL1        0.0756
      4 C         139.5321  139.4041  156.9952 C.ar    1  UNL1        0.0258
      5 C         138.5155  140.3000  157.6388 C.ar    1  UNL1        0.1306
      6 N         138.2915  140.2372  159.1206 N.ar    1  UNL1       -0.2122
      7 C         139.7561  139.4669  155.5134 C.3     1  UNL1        0.0478
      8 C         140.7726  138.5710  154.8700 C.3     1  UNL1        0.0772
      9 N         141.5651  137.6123  155.7084 N.3     1  UNL1       -0.2687
     10 C         141.3411  137.5495  157.1902 C.3     1  UNL1        0.1184
     11 N         137.7231  141.2587  156.8004 N.pl3   1  UNL1       -0.2900
     12 C         136.4350  140.8171  156.1711 C.3     1  UNL1        0.1242
     13 C         135.6425  141.7758  155.3328 C.3     1  UNL1        0.1636
     14 O         136.1381  143.1760  155.1236 O.3     1  UNL1       -0.3502
     15 C         137.4262  143.6176  155.7529 C.3     1  UNL1        0.1618
     16 C         138.2187  142.6589  156.5913 C.3     1  UNL1        0.1038
     17 C         139.5067  143.1005  157.2205 C.3     1  UNL1        0.0241
     18 C         138.4118  139.0901  164.4045 C.ar    1  UNL1        0.0516
     19 C         139.0363  137.9281  163.6905 C.ar    1  UNL1        0.0148
     20 C         139.2603  137.9909  162.2087 C.ar    1  UNL1        0.0043
     21 C         138.8599  139.2157  161.4408 C.ar    1  UNL1        0.0359
     22 C         138.2355  140.3777  162.1548 C.ar    1  UNL1        0.0043
     23 C         138.0114  140.3148  163.6366 C.ar    1  UNL1        0.0148
     24 N         138.9611  139.5803  168.3042 N.am    1  UNL1       -0.2887
     25 C         139.1851  139.6430  166.8224 C.2     1  UNL1        0.3045
     26 O         140.4065  140.3215  166.2766 O.2     1  UNL1       -0.2525
     27 N         138.1877  139.0273  165.8864 N.am    1  UNL1       -0.2683
     28 H         138.1594  139.1349  168.6625 H       1  UNL1        0.1510
     29 H         137.3861  138.5820  166.2446 H       1  UNL1        0.1564
     30 C         139.6025  141.4359  170.0057 C.3     1  UNL1        0.0230
     31 C         139.9584  140.1960  169.2403 C.3     1  UNL1        0.0910
     32 C         142.5817  136.7164  155.0649 C.3     1  UNL1        0.0579
     33 C         142.2179  135.9250  153.8437 C.3     1  UNL1        0.0173
     34 C         143.9620  136.6119  155.6426 C.3     1  UNL1        0.0173
@<TRIPOS>BOND
     1    30    31    1
     2    31    24    1
     3    24    25   am
     4    25    26    2
     5    25    27   am
     6    27    18    1
     7    18    19   ar
     8    19    20   ar
     9    20    21   ar
    10    21     1    1
    11     1     2   ar
    12     2     3   ar
    13     3     4   ar
    14     4     5   ar
    15     5    11    1
    16    11    12    1
    17    12    13    1
    18    13    14    1
    19    14    15    1
    20    15    16    1
    21    16    17    1
    22     5     6   ar
    23     4     7    1
    24     7     8    1
    25     8     9    1
    26     9    32    1
    27    32    33    1
    28    32    34    1
    29     9    10    1
    30    21    22   ar
    31    22    23   ar
    32    23    18   ar
    33     6     1   ar
    34    10     3    1
    35    16    11    1
    36    24    28    1
    37    27    29    1
@<TRIPOS>MOLECULE
*****
 34 37 0 0 0
SMALL
GASTEIGER

@<TRIPOS>ATOM
      1 C         141.2039  139.3483  160.6115 C.ar    1  UNL1        0.1633
      2 N         141.8482  138.7210  161.8119 N.ar    1  UNL1       -0.2297
      3 C         141.8038  139.4202  163.1383 C.ar    1  UNL1        0.0756
      4 C         141.1150  140.7467  163.2641 C.ar    1  UNL1        0.0258
      5 C         140.4706  141.3741  162.0635 C.ar    1  UNL1        0.1306
      6 N         140.5150  140.6749  160.7373 N.ar    1  UNL1       -0.2122
      7 C         141.0705  141.4459  164.5904 C.3     1  UNL1        0.0478
      8 C         141.7148  140.8186  165.7909 C.3     1  UNL1        0.0772
      9 N         142.4037  139.4921  165.6651 N.3     1  UNL1       -0.2687
     10 C         142.4481  138.7928  164.3388 C.3     1  UNL1        0.1184
     11 N         139.7818  142.7006  162.1894 N.pl3   1  UNL1       -0.2900
     12 C         140.5127  143.9618  161.8355 C.3     1  UNL1        0.1242
     13 C         139.8239  145.2883  161.9613 C.3     1  UNL1        0.1636
     14 O         138.4042  145.3537  162.4410 O.3     1  UNL1       -0.3502
     15 C         137.6732  144.0925  162.7949 C.3     1  UNL1        0.1618
     16 C         138.3620  142.7660  162.6691 C.3     1  UNL1        0.1038
     17 C         137.6311  141.5048  163.0230 C.3     1  UNL1        0.0241
     18 C         141.3371  137.2508  156.6324 C.ar    1  UNL1        0.0516
     19 C         140.0203  137.6714  157.2148 C.ar    1  UNL1        0.0148
     20 C         139.9759  138.3706  158.5411 C.ar    1  UNL1        0.0043
     21 C         141.2483  138.6491  159.2851 C.ar    1  UNL1        0.0359
     22 C         142.5650  138.2285  158.7027 C.ar    1  UNL1        0.0043
     23 C         142.6094  137.5293  157.3764 C.ar    1  UNL1        0.0148
     24 N         141.9193  134.4385  153.8935 N.am    1  UNL1       -0.2887
     25 C         141.8749  135.1377  155.2198 C.2     1  UNL1        0.3045
     26 O         142.3238  134.4230  156.4599 O.2     1  UNL1       -0.2525
     27 N         141.3815  136.5516  155.3061 N.am    1  UNL1       -0.2683
     28 H         141.6247  134.9076  153.0796 H       1  UNL1        0.1510
     29 H         141.0868  137.0207  154.4922 H       1  UNL1        0.1564
     30 C         141.4390  131.8853  153.8699 C.3     1  UNL1        0.0230
     31 C         142.4127  133.0246  153.8072 C.3     1  UNL1        0.0910
     32 C         143.0480  138.8647  166.8657 C.3     1  UNL1        0.0579
     33 C         144.0965  137.8070  166.6873 C.3     1  UNL1        0.0173
     34 C         142.6438  139.2951  168.2446 C.3     1  UNL1        0.0173
@<TRIPOS>BOND
     1    30    31    1
     2    31    24    1
     3    24    25   am
     4    25    26    2
     5    25    27   am
     6    27    18    1
     7    18    19   ar
     8    19    20   ar
     9    20    21   ar
    10    21     1    1
    11     1     2   ar
    12     2     3   ar
    13     3     4   ar
    14     4     5   ar
    15     5    11    1
    16    11    12    1
    17    12    13    1
    18    13    14    1
    19    14    15    1
    20    15    16    1
    21    16    17    1
    22     5     6   ar
    23     4     7    1
    24     7     8    1
    25     8     9    1
    26     9    32    1
    27    32    33    1
    28    32    34    1
    29     9    10    1
    30    21    22   ar
    31    22    23   ar
    32    23    18   ar
    33     6     1   ar
    34    10     3    1
    35    16    11    1
    36    24    28    1
    37    27    29    1
@<TRIPOS>MOLECULE
*****
 34 37 0 0 0
SMALL
GASTEIGER

@<TRIPOS>ATOM
      1 C         143.2416  143.2906  160.3548 C.ar    1  UNL1        0.1633
      2 N         142.4356  144.3977  159.7428 N.ar    1  UNL1       -0.2297
      3 C         142.1526  144.3935  158.2697 C.ar    1  UNL1        0.0756
      4 C         142.6758  143.2823  157.4086 C.ar    1  UNL1        0.0258
      5 C         143.4818  142.1751  158.0207 C.ar    1  UNL1        0.1306
      6 N         143.7647  142.1793  159.4938 N.ar    1  UNL1       -0.2122
      7 C         142.3929  143.2781  155.9356 C.3     1  UNL1        0.0478
      8 C         141.5869  144.3852  155.3236 C.3     1  UNL1        0.0772
      9 N         141.0637  145.4965  156.1846 N.3     1  UNL1       -0.2687
     10 C         141.3466  145.5006  157.6577 C.3     1  UNL1        0.1184
     11 N         144.0050  141.0638  157.1597 N.pl3   1  UNL1       -0.2900
     12 C         143.1621  139.8486  156.9093 C.3     1  UNL1        0.1242
     13 C         143.6852  138.7374  156.0483 C.3     1  UNL1        0.1636
     14 O         145.0513  138.8413  155.4376 O.3     1  UNL1       -0.3502
     15 C         145.8943  140.0565  155.6879 C.3     1  UNL1        0.1618
     16 C         145.3711  141.1678  156.5489 C.3     1  UNL1        0.1038
     17 C         146.2141  142.3830  156.7993 C.3     1  UNL1        0.0241
     18 C         144.0903  143.3030  164.7740 C.ar    1  UNL1        0.0516
     19 C         143.2466  144.3858  164.1693 C.ar    1  UNL1        0.0148
     20 C         142.9637  144.3816  162.6963 C.ar    1  UNL1        0.0043
     21 C         143.5245  143.2947  161.8279 C.ar    1  UNL1        0.0359
     22 C         144.3682  142.2119  162.4326 C.ar    1  UNL1        0.0043
     23 C         144.6511  142.2161  163.9057 C.ar    1  UNL1        0.0148
     24 N         143.7103  142.6342  168.6674 N.am    1  UNL1       -0.2887
     25 C         143.4275  142.6301  167.1943 C.2     1  UNL1        0.3045
     26 O         142.1988  141.9489  166.6684 O.2     1  UNL1       -0.2525
     27 N         144.3732  143.3071  166.2471 N.am    1  UNL1       -0.2683
     28 H         144.5167  143.0813  169.0125 H       1  UNL1        0.1510
     29 H         145.1796  143.7542  166.5923 H       1  UNL1        0.1564
     30 C         142.8679  140.4793  169.8491 C.3     1  UNL1        0.0230
     31 C         142.7646  141.9572  169.6146 C.3     1  UNL1        0.0910
     32 C         140.2577  146.6036  155.5725 C.3     1  UNL1        0.0579
     33 C         139.2538  147.3476  156.4023 C.3     1  UNL1        0.0173
     34 C         140.4556  146.9667  154.1307 C.3     1  UNL1        0.0173
@<TRIPOS>BOND
     1    30    31    1
     2    31    24    1
     3    24    25   am
     4    25    26    2
     5    25    27   am
     6    27    18    1
     7    18    19   ar
     8    19    20   ar
     9    20    21   ar
    10    21     1    1
    11     1     2   ar
    12     2     3   ar
    13     3     4   ar
    14     4     5   ar
    15     5    11    1
    16    11    12    1
    17    12    13    1
    18    13    14    1
    19    14    15    1
    20    15    16    1
    21    16    17    1
    22     5     6   ar
    23     4     7    1
    24     7     8    1
    25     8     9    1
    26     9    32    1
    27    32    33    1
    28    32    34    1
    29     9    10    1
    30    21    22   ar
    31    22    23   ar
    32    23    18   ar
    33     6     1   ar
    34    10     3    1
    35    16    11    1
    36    24    28    1
    37    27    29    1
@<TRIPOS>MOLECULE
*****
 34 37 0 0 0
SMALL
GASTEIGER

@<TRIPOS>ATOM
      1 C         142.7333  138.9912  161.0978 C.ar    1  UNL1        0.1633
      2 N         142.9153  137.8057  160.1970 N.ar    1  UNL1       -0.2297
      3 C         142.7408  137.9562  158.7148 C.ar    1  UNL1        0.0756
      4 C         142.3844  139.2922  158.1333 C.ar    1  UNL1        0.0258
      5 C         142.2024  140.4777  159.0342 C.ar    1  UNL1        0.1306
      6 N         142.3768  140.3272  160.5163 N.ar    1  UNL1       -0.2122
      7 C         142.2099  139.4427  156.6512 C.3     1  UNL1        0.0478
      8 C         142.3919  138.2572  155.7504 C.3     1  UNL1        0.0772
      9 N         142.7484  136.9212  156.3318 N.3     1  UNL1       -0.2687
     10 C         142.9229  136.7707  157.8140 C.3     1  UNL1        0.1184
     11 N         141.8459  141.8137  158.4528 N.pl3   1  UNL1       -0.2900
     12 C         140.4077  142.1715  158.2217 C.3     1  UNL1        0.1242
     13 C         140.0512  143.5075  157.6402 C.3     1  UNL1        0.1636
     14 O         141.1330  144.4857  157.2899 O.3     1  UNL1       -0.3502
     15 C         142.5713  144.1280  157.5210 C.3     1  UNL1        0.1618
     16 C         142.9278  142.7920  158.1024 C.3     1  UNL1        0.1038
     17 C         144.3660  142.4342  158.3335 C.3     1  UNL1        0.0241
     18 C         143.2566  138.5399  165.5444 C.ar    1  UNL1        0.0516
     19 C         142.0406  137.9758  164.8712 C.ar    1  UNL1        0.0148
     20 C         141.8662  138.1263  163.3891 C.ar    1  UNL1        0.0043
     21 C         142.9077  138.8408  162.5800 C.ar    1  UNL1        0.0359
     22 C         144.1237  139.4049  163.2532 C.ar    1  UNL1        0.0043
     23 C         144.2981  139.2544  164.7353 C.ar    1  UNL1        0.0148
     24 N         142.9304  139.1976  169.4445 N.am    1  UNL1       -0.2887
     25 C         142.7560  139.3480  167.9623 C.2     1  UNL1        0.3045
     26 O         141.9066  140.4570  167.4158 O.2     1  UNL1       -0.2525
     27 N         143.4310  138.3894  167.0266 N.am    1  UNL1       -0.2683
     28 H         143.4879  138.4697  169.8032 H       1  UNL1        0.1510
     29 H         143.9885  137.6616  167.3853 H       1  UNL1        0.1564
     30 C         140.7765  140.0621  170.6121 C.3     1  UNL1        0.0230
     31 C         142.2555  140.1562  170.3802 C.3     1  UNL1        0.0910
     32 C         142.9304  135.7356  155.4310 C.3     1  UNL1        0.0579
     33 C         142.3891  135.7662  154.0325 C.3     1  UNL1        0.0173
     34 C         143.6538  134.5195  155.9288 C.3     1  UNL1        0.0173
@<TRIPOS>BOND
     1    30    31    1
     2    31    24    1
     3    24    25   am
     4    25    26    2
     5    25    27   am
     6    27    18    1
     7    18    19   ar
     8    19    20   ar
     9    20    21   ar
    10    21     1    1
    11     1     2   ar
    12     2     3   ar
    13     3     4   ar
    14     4     5   ar
    15     5    11    1
    16    11    12    1
    17    12    13    1
    18    13    14    1
    19    14    15    1
    20    15    16    1
    21    16    17    1
    22     5     6   ar
    23     4     7    1
    24     7     8    1
    25     8     9    1
    26     9    32    1
    27    32    33    1
    28    32    34    1
    29     9    10    1
    30    21    22   ar
    31    22    23   ar
    32    23    18   ar
    33     6     1   ar
    34    10     3    1
    35    16    11    1
    36    24    28    1
    37    27    29    1
@<TRIPOS>MOLECULE
*****
 34 37 0 0 0
SMALL
GASTEIGER

@<TRIPOS>ATOM
      1 C         142.3616  138.9140  161.0028 C.ar    1  UNL1        0.1633
      2 N         142.7254  137.7955  160.0719 N.ar    1  UNL1       -0.2297
      3 C         142.4347  137.9157  158.6053 C.ar    1  UNL1        0.0756
      4 C         141.7802  139.1545  158.0695 C.ar    1  UNL1        0.0258
      5 C         141.4164  140.2730  159.0004 C.ar    1  UNL1        0.1306
      6 N         141.7071  140.1528  160.4670 N.ar    1  UNL1       -0.2122
      7 C         141.4894  139.2747  156.6029 C.3     1  UNL1        0.0478
      8 C         141.8532  138.1562  155.6721 C.3     1  UNL1        0.0772
      9 N         142.5077  136.9174  156.2078 N.3     1  UNL1       -0.2687
     10 C         142.7985  136.7971  157.6744 C.3     1  UNL1        0.1184
     11 N         140.7619  141.5118  158.4647 N.pl3   1  UNL1       -0.2900
     12 C         141.6032  142.6619  157.9962 C.3     1  UNL1        0.1242
     13 C         140.9487  143.9007  157.4605 C.3     1  UNL1        0.1636
     14 O         139.4529  143.9894  157.3931 O.3     1  UNL1       -0.3502
     15 C         138.6115  142.8393  157.8616 C.3     1  UNL1        0.1618
     16 C         139.2660  141.6005  158.3973 C.3     1  UNL1        0.1038
     17 C         138.4246  140.4504  158.8658 C.3     1  UNL1        0.0241
     18 C         143.2337  138.5533  165.4027 C.ar    1  UNL1        0.0516
     19 C         142.0312  137.8734  164.8183 C.ar    1  UNL1        0.0148
     20 C         141.7405  137.9937  163.3517 C.ar    1  UNL1        0.0043
     21 C         142.6524  138.7938  162.4695 C.ar    1  UNL1        0.0359
     22 C         143.8549  139.4737  163.0539 C.ar    1  UNL1        0.0043
     23 C         144.1456  139.3534  164.5205 C.ar    1  UNL1        0.0148
     24 N         143.0303  139.1228  169.3250 N.am    1  UNL1       -0.2887
     25 C         142.7396  139.2430  167.8584 C.2     1  UNL1        0.3045
     26 O         141.6640  140.1731  167.3807 O.2     1  UNL1       -0.2525
     27 N         143.5244  138.4331  166.8694 N.am    1  UNL1       -0.2683
     28 H         143.7362  138.5124  169.6385 H       1  UNL1        0.1510
     29 H         144.2304  137.8227  167.1829 H       1  UNL1        0.1564
     30 C         142.4915  141.4070  170.4395 C.3     1  UNL1        0.0230
     31 C         142.2454  139.9327  170.3140 C.3     1  UNL1        0.0910
     32 C         142.8715  135.7988  155.2769 C.3     1  UNL1        0.0579
     33 C         143.7614  134.6882  155.7507 C.3     1  UNL1        0.0173
     34 C         142.3454  135.7910  153.8722 C.3     1  UNL1        0.0173
@<TRIPOS>BOND
     1    30    31    1
     2    31    24    1
     3    24    25   am
     4    25    26    2
     5    25    27   am
     6    27    18    1
     7    18    19   ar
     8    19    20   ar
     9    20    21   ar
    10    21     1    1
    11     1     2   ar
    12     2     3   ar
    13     3     4   ar
    14     4     5   ar
    15     5    11    1
    16    11    12    1
    17    12    13    1
    18    13    14    1
    19    14    15    1
    20    15    16    1
    21    16    17    1
    22     5     6   ar
    23     4     7    1
    24     7     8    1
    25     8     9    1
    26     9    32    1
    27    32    33    1
    28    32    34    1
    29     9    10    1
    30    21    22   ar
    31    22    23   ar
    32    23    18   ar
    33     6     1   ar
    34    10     3    1
    35    16    11    1
    36    24    28    1
    37    27    29    1
@<TRIPOS>MOLECULE
*****
 34 37 0 0 0
SMALL
GASTEIGER

@<TRIPOS>ATOM
      1 C         138.8668  139.6916  160.2741 C.ar    1  UNL1        0.1633
      2 N         137.7707  140.2983  159.4494 N.ar    1  UNL1       -0.2297
      3 C         137.9408  140.4438  157.9661 C.ar    1  UNL1        0.0756
      4 C         139.2072  139.9824  157.3077 C.ar    1  UNL1        0.0258
      5 C         140.3033  139.3756  158.1325 C.ar    1  UNL1        0.1306
      6 N         140.1331  139.2302  159.6157 N.ar    1  UNL1       -0.2122
      7 C         139.3774  140.1278  155.8245 C.3     1  UNL1        0.0478
      8 C         138.2812  140.7346  154.9998 C.3     1  UNL1        0.0772
      9 N         137.0149  141.1960  155.6582 N.3     1  UNL1       -0.2687
     10 C         136.8447  141.0505  157.1414 C.3     1  UNL1        0.1184
     11 N         141.5697  138.9142  157.4741 N.pl3   1  UNL1       -0.2900
     12 C         141.7369  137.4719  157.0977 C.3     1  UNL1        0.1242
     13 C         143.0032  137.0105  156.4393 C.3     1  UNL1        0.1636
     14 O         144.1023  137.9915  156.1572 O.3     1  UNL1       -0.3502
     15 C         143.9352  139.4339  156.5336 C.3     1  UNL1        0.1618
     16 C         142.6688  139.8953  157.1920 C.3     1  UNL1        0.1038
     17 C         142.5016  141.3376  157.5684 C.3     1  UNL1        0.0241
     18 C         138.3564  139.2552  164.7237 C.ar    1  UNL1        0.0516
     19 C         138.9127  138.1191  163.9177 C.ar    1  UNL1        0.0148
     20 C         139.0828  138.2646  162.4345 C.ar    1  UNL1        0.0043
     21 C         138.6966  139.5461  161.7574 C.ar    1  UNL1        0.0359
     22 C         138.1403  140.6822  162.5635 C.ar    1  UNL1        0.0043
     23 C         137.9702  140.5367  164.0466 C.ar    1  UNL1        0.0148
     24 N         138.9893  139.6200  168.6246 N.am    1  UNL1       -0.2887
     25 C         139.1594  139.7654  167.1414 C.2     1  UNL1        0.3045
     26 O         140.3027  140.5665  166.5925 O.2     1  UNL1       -0.2525
     27 N         138.1862  139.1097  166.2070 N.am    1  UNL1       -0.2683
     28 H         138.2389  139.0942  168.9848 H       1  UNL1        0.1510
     29 H         137.4358  138.5840  166.5672 H       1  UNL1        0.1564
     30 C         139.7338  141.6877  170.0102 C.3     1  UNL1        0.0230
     31 C         139.9624  140.2756  169.5590 C.3     1  UNL1        0.0910
     32 C         135.9187  141.8028  154.8334 C.3     1  UNL1        0.0579
     33 C         136.2360  142.8836  153.8430 C.3     1  UNL1        0.0173
     34 C         134.5053  141.3286  154.9991 C.3     1  UNL1        0.0173
@<TRIPOS>BOND
     1    30    31    1
     2    31    24    1
     3    24    25   am
     4    25    26    2
     5    25    27   am
     6    27    18    1
     7    18    19   ar
     8    19    20   ar
     9    20    21   ar
    10    21     1    1
    11     1     2   ar
    12     2     3   ar
    13     3     4   ar
    14     4     5   ar
    15     5    11    1
    16    11    12    1
    17    12    13    1
    18    13    14    1
    19    14    15    1
    20    15    16    1
    21    16    17    1
    22     5     6   ar
    23     4     7    1
    24     7     8    1
    25     8     9    1
    26     9    32    1
    27    32    33    1
    28    32    34    1
    29     9    10    1
    30    21    22   ar
    31    22    23   ar
    32    23    18   ar
    33     6     1   ar
    34    10     3    1
    35    16    11    1
    36    24    28    1
    37    27    29    1
@<TRIPOS>MOLECULE
*****
 34 37 0 0 0
SMALL
GASTEIGER

@<TRIPOS>ATOM
      1 C         143.2908  139.1805  159.9631 C.ar    1  UNL1        0.1633
      2 N         144.1916  140.1998  159.3312 N.ar    1  UNL1       -0.2297
      3 C         144.1897  140.3821  157.8422 C.ar    1  UNL1        0.0756
      4 C         143.2869  139.5450  156.9853 C.ar    1  UNL1        0.0258
      5 C         142.3861  138.5256  157.6173 C.ar    1  UNL1        0.1306
      6 N         142.3881  138.3433  159.1062 N.ar    1  UNL1       -0.2122
      7 C         143.2850  139.7272  155.4965 C.3     1  UNL1        0.0478
      8 C         144.1858  140.7466  154.8645 C.3     1  UNL1        0.0772
      9 N         145.0885  141.5837  155.7214 N.3     1  UNL1       -0.2687
     10 C         145.0904  141.4015  157.2103 C.3     1  UNL1        0.1184
     11 N         141.4834  137.6884  156.7604 N.pl3   1  UNL1       -0.2900
     12 C         140.0791  138.1389  156.4869 C.3     1  UNL1        0.1242
     13 C         139.1764  137.3018  155.6299 C.3     1  UNL1        0.1636
     14 O         139.6780  136.0141  155.0466 O.3     1  UNL1       -0.3502
     15 C         141.0824  135.5636  155.3202 C.3     1  UNL1        0.1618
     16 C         141.9851  136.4007  156.1771 C.3     1  UNL1        0.1038
     17 C         143.3894  135.9502  156.4506 C.3     1  UNL1        0.0241
     18 C         143.2966  138.6337  164.4297 C.ar    1  UNL1        0.0516
     19 C         144.3681  139.4525  163.7730 C.ar    1  UNL1        0.0148
     20 C         144.3662  139.6347  162.2842 C.ar    1  UNL1        0.0043
     21 C         143.2927  138.9982  161.4520 C.ar    1  UNL1        0.0359
     22 C         142.2212  138.1793  162.1087 C.ar    1  UNL1        0.0043
     23 C         142.2231  137.9971  163.5976 C.ar    1  UNL1        0.0148
     24 N         142.8370  139.3822  168.3000 N.am    1  UNL1       -0.2887
     25 C         142.8351  139.5644  166.8111 C.2     1  UNL1        0.3045
     26 O         142.3698  140.8597  166.2146 O.2     1  UNL1       -0.2525
     27 N         143.2985  138.4514  165.9187 N.am    1  UNL1       -0.2683
     28 H         143.1424  138.5320  168.6914 H       1  UNL1        0.1510
     29 H         143.6039  137.6012  166.3101 H       1  UNL1        0.1564
     30 C         143.2836  141.6516  169.4833 C.3     1  UNL1        0.0230
     31 C         142.3736  140.4952  169.1924 C.3     1  UNL1        0.0910
     32 C         145.9893  142.6032  155.0894 C.3     1  UNL1        0.0579
     33 C         145.4438  143.5540  154.0655 C.3     1  UNL1        0.0173
     34 C         147.4356  142.6717  155.4813 C.3     1  UNL1        0.0173
@<TRIPOS>BOND
     1    30    31    1
     2    31    24    1
     3    24    25   am
     4    25    26    2
     5    25    27   am
     6    27    18    1
     7    18    19   ar
     8    19    20   ar
     9    20    21   ar
    10    21     1    1
    11     1     2   ar
    12     2     3   ar
    13     3     4   ar
    14     4     5   ar
    15     5    11    1
    16    11    12    1
    17    12    13    1
    18    13    14    1
    19    14    15    1
    20    15    16    1
    21    16    17    1
    22     5     6   ar
    23     4     7    1
    24     7     8    1
    25     8     9    1
    26     9    32    1
    27    32    33    1
    28    32    34    1
    29     9    10    1
    30    21    22   ar
    31    22    23   ar
    32    23    18   ar
    33     6     1   ar
    34    10     3    1
    35    16    11    1
    36    24    28    1
    37    27    29    1
@<TRIPOS>MOLECULE
*****
 34 37 0 0 0
SMALL
GASTEIGER

@<TRIPOS>ATOM
      1 C         143.8978  142.9034  160.2431 C.ar    1  UNL1        0.1633
      2 N         145.0957  142.5567  159.4096 N.ar    1  UNL1       -0.2297
      3 C         144.9852  142.5249  157.9140 C.ar    1  UNL1        0.0756
      4 C         143.6765  142.8398  157.2519 C.ar    1  UNL1        0.0258
      5 C         142.4785  143.1865  158.0854 C.ar    1  UNL1        0.1306
      6 N         142.5892  143.2182  159.5809 N.ar    1  UNL1       -0.2122
      7 C         143.5659  142.8080  155.7563 C.3     1  UNL1        0.0478
      8 C         144.7639  142.4614  154.9229 C.3     1  UNL1        0.0772
      9 N         146.0725  142.1465  155.5850 N.3     1  UNL1       -0.2687
     10 C         146.1831  142.1783  157.0806 C.3     1  UNL1        0.1184
     11 N         141.1699  143.5013  157.4233 N.pl3   1  UNL1       -0.2900
     12 C         140.1722  142.4088  157.1764 C.3     1  UNL1        0.1242
     13 C         138.8636  142.7237  156.5143 C.3     1  UNL1        0.1636
     14 O         138.5527  144.1311  156.0991 O.3     1  UNL1       -0.3502
     15 C         139.5504  145.2237  156.3459 C.3     1  UNL1        0.1618
     16 C         140.8590  144.9088  157.0080 C.3     1  UNL1        0.1038
     17 C         141.8567  146.0014  157.2549 C.3     1  UNL1        0.0241
     18 C         144.2296  142.9986  164.7298 C.ar    1  UNL1        0.0516
     19 C         144.5735  141.7466  163.9788 C.ar    1  UNL1        0.0148
     20 C         144.4629  141.7149  162.4832 C.ar    1  UNL1        0.0043
     21 C         144.0084  142.9352  161.7387 C.ar    1  UNL1        0.0359
     22 C         143.6644  144.1872  162.4897 C.ar    1  UNL1        0.0043
     23 C         143.7751  144.2189  163.9853 C.ar    1  UNL1        0.0148
     24 N         143.3073  142.5874  168.5678 N.am    1  UNL1       -0.2887
     25 C         143.1967  142.5557  167.0723 C.2     1  UNL1        0.3045
     26 O         141.9427  142.0491  166.4235 O.2     1  UNL1       -0.2525
     27 N         144.3402  143.0304  166.2254 N.am    1  UNL1       -0.2683
     28 H         144.1303  142.9199  168.9936 H       1  UNL1        0.1510
     29 H         145.1632  143.3629  166.6512 H       1  UNL1        0.1564
     30 C         141.0287  143.0409  169.7308 C.3     1  UNL1        0.0230
     31 C         142.1638  142.1127  169.4146 C.3     1  UNL1        0.0910
     32 C         147.2705  141.7998  154.7515 C.3     1  UNL1        0.0579
     33 C         147.1157  141.5604  153.2789 C.3     1  UNL1        0.0173
     34 C         148.6232  141.6927  155.3907 C.3     1  UNL1        0.0173
@<TRIPOS>BOND
     1    30    31    1
     2    31    24    1
     3    24    25   am
     4    25    26    2
     5    25    27   am
     6    27    18    1
     7    18    19   ar
     8    19    20   ar
     9    20    21   ar
    10    21     1    1
    11     1     2   ar
    12     2     3   ar
    13     3     4   ar
    14     4     5   ar
    15     5    11    1
    16    11    12    1
    17    12    13    1
    18    13    14    1
    19    14    15    1
    20    15    16    1
    21    16    17    1
    22     5     6   ar
    23     4     7    1
    24     7     8    1
    25     8     9    1
    26     9    32    1
    27    32    33    1
    28    32    34    1
    29     9    10    1
    30    21    22   ar
    31    22    23   ar
    32    23    18   ar
    33     6     1   ar
    34    10     3    1
    35    16    11    1
    36    24    28    1
    37    27    29    1
@<TRIPOS>MOLECULE
*****
 34 37 0 0 0
SMALL
GASTEIGER

@<TRIPOS>ATOM
      1 C         141.7858  139.1254  159.5078 C.ar    1  UNL1        0.1633
      2 N         142.9346  140.0524  159.2415 N.ar    1  UNL1       -0.2297
      3 C         143.6324  140.0201  157.9141 C.ar    1  UNL1        0.0756
      4 C         143.1814  139.0606  156.8529 C.ar    1  UNL1        0.0258
      5 C         142.0326  138.1336  157.1192 C.ar    1  UNL1        0.1306
      6 N         141.3348  138.1659  158.4466 N.ar    1  UNL1       -0.2122
      7 C         143.8791  139.0282  155.5255 C.3     1  UNL1        0.0478
      8 C         145.0279  139.9553  155.2592 C.3     1  UNL1        0.0772
      9 N         145.4789  140.9147  156.3204 N.3     1  UNL1       -0.2687
     10 C         144.7812  140.9471  157.6478 C.3     1  UNL1        0.1184
     11 N         141.5816  137.1741  156.0580 N.pl3   1  UNL1       -0.2900
     12 C         140.5719  137.6062  155.0363 C.3     1  UNL1        0.1242
     13 C         140.1209  136.6468  153.9752 C.3     1  UNL1        0.1636
     14 O         140.6796  135.2552  153.9357 O.3     1  UNL1       -0.3502
     15 C         141.6893  134.8231  154.9574 C.3     1  UNL1        0.1618
     16 C         142.1403  135.7825  156.0186 C.3     1  UNL1        0.1038
     17 C         143.1499  135.3505  157.0403 C.3     1  UNL1        0.0241
     18 C         139.6925  139.2226  163.4900 C.ar    1  UNL1        0.0516
     19 C         139.7644  140.4632  162.6501 C.ar    1  UNL1        0.0148
     20 C         140.4622  140.4308  161.3227 C.ar    1  UNL1        0.0043
     21 C         141.0880  139.1577  160.8352 C.ar    1  UNL1        0.0359
     22 C         141.0161  137.9171  161.6752 C.ar    1  UNL1        0.0043
     23 C         140.3183  137.9495  163.0026 C.ar    1  UNL1        0.0148
     24 N         139.0504  139.6874  167.3787 N.am    1  UNL1       -0.2887
     25 C         139.7481  139.6550  166.0513 C.2     1  UNL1        0.3045
     26 O         141.1994  140.0227  165.9576 O.2     1  UNL1       -0.2525
     27 N         138.9947  139.2549  164.8175 N.am    1  UNL1       -0.2683
     28 H         138.0979  139.4460  167.4401 H       1  UNL1        0.1510
     29 H         138.0422  139.0136  164.8789 H       1  UNL1        0.1564
     30 C         139.0574  140.4704  169.8559 C.3     1  UNL1        0.0230
     31 C         139.8038  140.0875  168.6125 C.3     1  UNL1        0.0910
     32 C         146.6277  141.8418  156.0541 C.3     1  UNL1        0.0579
     33 C         147.1119  142.7651  157.1325 C.3     1  UNL1        0.0173
     34 C         147.2923  141.8455  154.7094 C.3     1  UNL1        0.0173
@<TRIPOS>BOND
     1    30    31    1
     2    31    24    1
     3    24    25   am
     4    25    26    2
     5    25    27   am
     6    27    18    1
     7    18    19   ar
     8    19    20   ar
     9    20    21   ar
    10    21     1    1
    11     1     2   ar
    12     2     3   ar
    13     3     4   ar
    14     4     5   ar
    15     5    11    1
    16    11    12    1
    17    12    13    1
    18    13    14    1
    19    14    15    1
    20    15    16    1
    21    16    17    1
    22     5     6   ar
    23     4     7    1
    24     7     8    1
    25     8     9    1
    26     9    32    1
    27    32    33    1
    28    32    34    1
    29     9    10    1
    30    21    22   ar
    31    22    23   ar
    32    23    18   ar
    33     6     1   ar
    34    10     3    1
    35    16    11    1
    36    24    28    1
    37    27    29    1
