@<TRIPOS>MOLECULE
*****
 30 33 0 0 0
SMALL
GASTEIGER

@<TRIPOS>ATOM
      1 C         139.7676  138.3360  162.5865 C.ar    1  UNL1        0.0853
      2 C         141.0681  137.5889  162.6098 C.ar    1  UNL1        0.1045
      3 N         141.9882  137.7214  163.7870 N.ar    1  UNL1       -0.2435
      4 C         141.6079  138.6011  164.9409 C.ar    1  UNL1        0.0847
      5 C         142.5281  138.7336  166.1181 C.ar    1  UNL1        0.0488
      6 C         142.1478  139.6133  167.2720 C.ar    1  UNL1        0.1416
      7 F         143.0679  139.7458  168.4492 F       1  UNL1       -0.2041
      8 C         140.8473  140.3605  167.2488 C.ar    1  UNL1        0.0291
      9 C         139.9271  140.2279  166.0716 C.ar    1  UNL1        0.0050
     10 C         140.3075  139.3482  164.9176 C.ar    1  UNL1        0.0311
     11 C         139.3873  139.2157  163.7404 C.ar    1  UNL1        0.0519
     12 C         140.4670  141.2401  168.4027 C.ar    1  UNL1        0.0213
     13 C         140.8793  142.6823  168.4141 C.ar    1  UNL1        0.0032
     14 C         140.4990  143.5620  169.5680 C.ar    1  UNL1        0.0207
     15 C         139.7064  142.9995  170.7105 C.ar    1  UNL1        0.0989
     16 N         139.2940  141.5574  170.6991 N.ar    1  UNL1       -0.2423
     17 C         139.6743  140.6777  169.5452 C.ar    1  UNL1        0.0989
     18 N         139.3937  138.3011  160.0158 N.am    1  UNL1       -0.3252
     19 C         138.8475  138.2035  161.4094 C.2     1  UNL1        0.2455
     20 O         137.3811  137.9735  161.6257 O.2     1  UNL1       -0.2703
     21 H         138.7897  138.2141  159.2432 H       1  UNL1        0.1453
     22 H         140.3561  138.4521  159.8737 H       1  UNL1        0.1453
     23 N         138.0868  139.9629  163.7172 N.pl3   1  UNL1       -0.3337
     24 H         137.2626  139.5264  164.0325 H       1  UNL1        0.1468
     25 C         138.0421  141.3751  163.2136 C.3     1  UNL1        0.0740
     26 C         137.7718  142.5026  164.1654 C.3     1  UNL1        0.0516
     27 C         137.7271  143.9148  163.6618 C.3     1  UNL1        0.1439
     28 O         137.9527  144.1996  162.2064 O.3     1  UNL1       -0.3537
     29 C         138.2230  143.0722  161.2547 C.3     1  UNL1        0.1439
     30 C         138.2677  141.6599  161.7583 C.3     1  UNL1        0.0516
@<TRIPOS>BOND
     1    18    19   am
     2    19    20    2
     3    19     1    1
     4     1     2   ar
     5     2     3   ar
     6     3     4   ar
     7     4     5   ar
     8     5     6   ar
     9     6     7    1
    10     6     8   ar
    11     8    12    1
    12    12    13   ar
    13    13    14   ar
    14    14    15   ar
    15    15    16   ar
    16    16    17   ar
    17     8     9   ar
    18     9    10   ar
    19    10    11   ar
    20    11    23    1
    21    23    25    1
    22    25    26    1
    23    26    27    1
    24    27    28    1
    25    28    29    1
    26    29    30    1
    27    11     1   ar
    28    30    25    1
    29    10     4   ar
    30    17    12   ar
    31    18    21    1
    32    18    22    1
    33    23    24    1
@<TRIPOS>MOLECULE
*****
 30 33 0 0 0
SMALL
GASTEIGER

@<TRIPOS>ATOM
      1 C         139.2017  143.7728  162.2586 C.ar    1  UNL1        0.0853
      2 C         138.0459  142.9646  161.7479 C.ar    1  UNL1        0.1045
      3 N         137.5732  141.7646  162.5138 N.ar    1  UNL1       -0.2435
      4 C         138.2563  141.3728  163.7904 C.ar    1  UNL1        0.0847
      5 C         137.7836  140.1728  164.5563 C.ar    1  UNL1        0.0488
      6 C         138.4667  139.7810  165.8329 C.ar    1  UNL1        0.1416
      7 F         137.9940  138.5810  166.5988 F       1  UNL1       -0.2041
      8 C         139.6226  140.5892  166.3437 C.ar    1  UNL1        0.0291
      9 C         140.0953  141.7892  165.5778 C.ar    1  UNL1        0.0050
     10 C         139.4121  142.1810  164.3011 C.ar    1  UNL1        0.0311
     11 C         139.8848  143.3810  163.5352 C.ar    1  UNL1        0.0519
     12 C         140.3057  140.1974  167.6203 C.ar    1  UNL1        0.0213
     13 C         141.7571  139.8187  167.6087 C.ar    1  UNL1        0.0032
     14 C         142.4402  139.4270  168.8853 C.ar    1  UNL1        0.0207
     15 C         141.6720  139.4138  170.1736 C.ar    1  UNL1        0.0989
     16 N         140.2207  139.7924  170.1852 N.ar    1  UNL1       -0.2423
     17 C         139.5375  140.1842  168.9086 C.ar    1  UNL1        0.0989
     18 N         139.8367  144.8958  160.0035 N.am    1  UNL1       -0.3252
     19 C         139.6744  144.9727  161.4927 C.2     1  UNL1        0.2455
     20 O         139.9848  146.2496  162.2160 O.2     1  UNL1       -0.2703
     21 H         140.1470  145.6834  159.5008 H       1  UNL1        0.1453
     22 H         139.6330  144.0578  159.5288 H       1  UNL1        0.1453
     23 N         141.0407  144.1892  164.0460 N.pl3   1  UNL1       -0.3337
     24 H         140.8766  145.0143  164.5574 H       1  UNL1        0.1468
     25 C         142.4465  143.7402  163.7776 C.3     1  UNL1        0.0740
     26 C         143.2640  143.1351  164.8802 C.3     1  UNL1        0.0516
     27 C         144.6699  142.6862  164.6119 C.3     1  UNL1        0.1439
     28 O         145.2582  142.8422  163.2410 O.3     1  UNL1       -0.3537
     29 C         144.4408  143.4473  162.1384 C.3     1  UNL1        0.1439
     30 C         143.0349  143.8963  162.4067 C.3     1  UNL1        0.0516
@<TRIPOS>BOND
     1    18    19   am
     2    19    20    2
     3    19     1    1
     4     1     2   ar
     5     2     3   ar
     6     3     4   ar
     7     4     5   ar
     8     5     6   ar
     9     6     7    1
    10     6     8   ar
    11     8    12    1
    12    12    13   ar
    13    13    14   ar
    14    14    15   ar
    15    15    16   ar
    16    16    17   ar
    17     8     9   ar
    18     9    10   ar
    19    10    11   ar
    20    11    23    1
    21    23    25    1
    22    25    26    1
    23    26    27    1
    24    27    28    1
    25    28    29    1
    26    29    30    1
    27    11     1   ar
    28    30    25    1
    29    10     4   ar
    30    17    12   ar
    31    18    21    1
    32    18    22    1
    33    23    24    1
@<TRIPOS>MOLECULE
*****
 30 33 0 0 0
SMALL
GASTEIGER

@<TRIPOS>ATOM
      1 C         142.5234  138.5660  162.6196 C.ar    1  UNL1        0.0853
      2 C         141.3924  137.6272  162.3204 C.ar    1  UNL1        0.1045
      3 N         140.2144  137.5530  163.2461 N.ar    1  UNL1       -0.2435
      4 C         140.1674  138.4175  164.4709 C.ar    1  UNL1        0.0847
      5 C         138.9894  138.3433  165.3966 C.ar    1  UNL1        0.0488
      6 C         138.9423  139.2079  166.6214 C.ar    1  UNL1        0.1416
      7 F         137.7643  139.1336  167.5470 F       1  UNL1       -0.2041
      8 C         140.0733  140.1467  166.9206 C.ar    1  UNL1        0.0291
      9 C         141.2513  140.2210  165.9950 C.ar    1  UNL1        0.0050
     10 C         141.2983  139.3563  164.7701 C.ar    1  UNL1        0.0311
     11 C         142.4763  139.4306  163.8445 C.ar    1  UNL1        0.0519
     12 C         140.0263  141.0113  168.1455 C.ar    1  UNL1        0.0213
     13 C         140.4430  142.4500  168.0644 C.ar    1  UNL1        0.0032
     14 C         140.3959  143.3146  169.2893 C.ar    1  UNL1        0.0207
     15 C         139.9322  142.7405  170.5952 C.ar    1  UNL1        0.0989
     16 N         139.5155  141.3019  170.6762 N.ar    1  UNL1       -0.2423
     17 C         139.5625  140.4372  169.4514 C.ar    1  UNL1        0.0989
     18 N         144.4673  137.3963  161.3536 N.am    1  UNL1       -0.3252
     19 C         143.7014  138.6402  161.6940 C.2     1  UNL1        0.2455
     20 O         144.1135  139.9584  161.1088 O.2     1  UNL1       -0.2703
     21 H         145.2404  137.4450  160.7460 H       1  UNL1        0.1453
     22 H         144.1968  136.5311  161.7376 H       1  UNL1        0.1453
     23 N         143.6073  140.3694  164.1437 N.pl3   1  UNL1       -0.3337
     24 H         144.4693  140.0161  164.4620 H       1  UNL1        0.1468
     25 C         143.4249  141.8466  163.9580 C.3     1  UNL1        0.0740
     26 C         142.4038  142.3600  162.9863 C.3     1  UNL1        0.0516
     27 C         142.2214  143.8372  162.8006 C.3     1  UNL1        0.1439
     28 O         143.0601  144.8011  163.5864 O.3     1  UNL1       -0.3537
     29 C         144.0811  144.2879  164.5580 C.3     1  UNL1        0.1439
     30 C         144.2635  142.8106  164.7438 C.3     1  UNL1        0.0516
@<TRIPOS>BOND
     1    18    19   am
     2    19    20    2
     3    19     1    1
     4     1     2   ar
     5     2     3   ar
     6     3     4   ar
     7     4     5   ar
     8     5     6   ar
     9     6     7    1
    10     6     8   ar
    11     8    12    1
    12    12    13   ar
    13    13    14   ar
    14    14    15   ar
    15    15    16   ar
    16    16    17   ar
    17     8     9   ar
    18     9    10   ar
    19    10    11   ar
    20    11    23    1
    21    23    25    1
    22    25    26    1
    23    26    27    1
    24    27    28    1
    25    28    29    1
    26    29    30    1
    27    11     1   ar
    28    30    25    1
    29    10     4   ar
    30    17    12   ar
    31    18    21    1
    32    18    22    1
    33    23    24    1
@<TRIPOS>MOLECULE
*****
 30 33 0 0 0
SMALL
GASTEIGER

@<TRIPOS>ATOM
      1 C         141.8494  144.7386  162.4232 C.ar    1  UNL1        0.0853
      2 C         143.3422  144.6967  162.5630 C.ar    1  UNL1        0.1045
      3 N         143.9652  144.0441  163.7613 N.ar    1  UNL1       -0.2435
      4 C         143.0954  143.4335  164.8199 C.ar    1  UNL1        0.0847
      5 C         143.7185  142.7810  166.0182 C.ar    1  UNL1        0.0488
      6 C         142.8486  142.1704  167.0767 C.ar    1  UNL1        0.1416
      7 F         143.4717  141.5179  168.2751 F       1  UNL1       -0.2041
      8 C         141.3557  142.2123  166.9370 C.ar    1  UNL1        0.0291
      9 C         140.7327  142.8649  165.7386 C.ar    1  UNL1        0.0050
     10 C         141.6026  143.4755  164.6801 C.ar    1  UNL1        0.0311
     11 C         140.9795  144.1280  163.4817 C.ar    1  UNL1        0.0519
     12 C         140.4859  141.6017  167.9955 C.ar    1  UNL1        0.0213
     13 C         140.2920  142.3064  169.3055 C.ar    1  UNL1        0.0032
     14 C         139.4222  141.6958  170.3640 C.ar    1  UNL1        0.0207
     15 C         138.7462  140.3806  170.1127 C.ar    1  UNL1        0.0989
     16 N         138.9400  139.6759  168.8028 N.ar    1  UNL1       -0.2423
     17 C         139.8099  140.2865  167.7441 C.ar    1  UNL1        0.0989
     18 N         141.8689  145.2526  159.8765 N.am    1  UNL1       -0.3252
     19 C         141.2263  145.3911  161.2248 C.2     1  UNL1        0.2455
     20 O         139.9607  146.1821  161.3747 O.2     1  UNL1       -0.2703
     21 H         141.4600  145.6809  159.0900 H       1  UNL1        0.1453
     22 H         142.6996  144.7334  159.7781 H       1  UNL1        0.1453
     23 N         139.4866  144.1699  163.3419 N.pl3   1  UNL1       -0.3337
     24 H         138.9856  144.9605  163.6473 H       1  UNL1        0.1468
     25 C         138.7571  143.0073  162.7369 C.3     1  UNL1        0.0740
     26 C         137.9681  142.0792  163.6122 C.3     1  UNL1        0.0516
     27 C         137.2386  140.9166  163.0071 C.3     1  UNL1        0.1439
     28 O         137.2979  140.6821  161.5268 O.3     1  UNL1       -0.3537
     29 C         138.0868  141.6102  160.6514 C.3     1  UNL1        0.1439
     30 C         138.8164  142.7729  161.2565 C.3     1  UNL1        0.0516
@<TRIPOS>BOND
     1    18    19   am
     2    19    20    2
     3    19     1    1
     4     1     2   ar
     5     2     3   ar
     6     3     4   ar
     7     4     5   ar
     8     5     6   ar
     9     6     7    1
    10     6     8   ar
    11     8    12    1
    12    12    13   ar
    13    13    14   ar
    14    14    15   ar
    15    15    16   ar
    16    16    17   ar
    17     8     9   ar
    18     9    10   ar
    19    10    11   ar
    20    11    23    1
    21    23    25    1
    22    25    26    1
    23    26    27    1
    24    27    28    1
    25    28    29    1
    26    29    30    1
    27    11     1   ar
    28    30    25    1
    29    10     4   ar
    30    17    12   ar
    31    18    21    1
    32    18    22    1
    33    23    24    1
@<TRIPOS>MOLECULE
*****
 30 33 0 0 0
SMALL
GASTEIGER

@<TRIPOS>ATOM
      1 C         142.0354  142.0519  169.8495 C.ar    1  UNL1        0.0853
      2 C         141.1495  141.5636  170.9570 C.ar    1  UNL1        0.1045
      3 N         139.9475  140.7238  170.6411 N.ar    1  UNL1       -0.2435
      4 C         139.6314  140.3721  169.2176 C.ar    1  UNL1        0.0847
      5 C         138.4294  139.5323  168.9017 C.ar    1  UNL1        0.0488
      6 C         138.1133  139.1806  167.4782 C.ar    1  UNL1        0.1416
      7 F         136.9113  138.3408  167.1622 F       1  UNL1       -0.2041
      8 C         138.9992  139.6689  166.3705 C.ar    1  UNL1        0.0291
      9 C         140.2012  140.5087  166.6864 C.ar    1  UNL1        0.0050
     10 C         140.5173  140.8604  168.1100 C.ar    1  UNL1        0.0311
     11 C         141.7193  141.7002  168.4260 C.ar    1  UNL1        0.0519
     12 C         138.6831  139.3173  164.9470 C.ar    1  UNL1        0.0213
     13 C         138.9800  137.9405  164.4308 C.ar    1  UNL1        0.0032
     14 C         138.6640  137.5888  163.0073 C.ar    1  UNL1        0.0207
     15 C         138.0509  138.6139  162.0999 C.ar    1  UNL1        0.0989
     16 N         137.7539  139.9906  162.6160 N.ar    1  UNL1       -0.2423
     17 C         138.0700  140.3423  164.0396 C.ar    1  UNL1        0.0989
     18 N         143.1623  143.9338  171.2417 N.am    1  UNL1       -0.3252
     19 C         143.2374  142.8917  170.1654 C.2     1  UNL1        0.2455
     20 O         144.5144  142.6896  169.4050 O.2     1  UNL1       -0.2703
     21 H         143.9512  144.4850  171.4491 H       1  UNL1        0.1453
     22 H         142.3241  144.0665  171.7408 H       1  UNL1        0.1453
     23 N         142.6052  142.1885  167.3183 N.pl3   1  UNL1       -0.3337
     24 H         142.7713  143.1528  167.2096 H       1  UNL1        0.1468
     25 C         143.2380  141.2076  166.3764 C.3     1  UNL1        0.0740
     26 C         143.2957  139.7524  166.7361 C.3     1  UNL1        0.0516
     27 C         143.9285  138.7715  165.7942 C.3     1  UNL1        0.1439
     28 O         144.5037  139.2456  164.4925 O.3     1  UNL1       -0.3537
     29 C         144.4460  140.7007  164.1327 C.3     1  UNL1        0.1439
     30 C         143.8132  141.6817  165.0747 C.3     1  UNL1        0.0516
@<TRIPOS>BOND
     1    18    19   am
     2    19    20    2
     3    19     1    1
     4     1     2   ar
     5     2     3   ar
     6     3     4   ar
     7     4     5   ar
     8     5     6   ar
     9     6     7    1
    10     6     8   ar
    11     8    12    1
    12    12    13   ar
    13    13    14   ar
    14    14    15   ar
    15    15    16   ar
    16    16    17   ar
    17     8     9   ar
    18     9    10   ar
    19    10    11   ar
    20    11    23    1
    21    23    25    1
    22    25    26    1
    23    26    27    1
    24    27    28    1
    25    28    29    1
    26    29    30    1
    27    11     1   ar
    28    30    25    1
    29    10     4   ar
    30    17    12   ar
    31    18    21    1
    32    18    22    1
    33    23    24    1
@<TRIPOS>MOLECULE
*****
 30 33 0 0 0
SMALL
GASTEIGER

@<TRIPOS>ATOM
      1 C         140.3641  142.0348  169.0574 C.ar    1  UNL1        0.0853
      2 C         139.4976  141.1669  169.9210 C.ar    1  UNL1        0.1045
      3 N         138.7977  139.9799  169.3284 N.ar    1  UNL1       -0.2435
      4 C         138.9644  139.6607  167.8723 C.ar    1  UNL1        0.0847
      5 C         138.2645  138.4737  167.2798 C.ar    1  UNL1        0.0488
      6 C         138.4311  138.1546  165.8237 C.ar    1  UNL1        0.1416
      7 F         137.7312  136.9675  165.2311 F       1  UNL1       -0.2041
      8 C         139.2977  139.0225  164.9600 C.ar    1  UNL1        0.0291
      9 C         139.9976  140.2095  165.5525 C.ar    1  UNL1        0.0050
     10 C         139.8309  140.5286  167.0087 C.ar    1  UNL1        0.0311
     11 C         140.5308  141.7157  167.6013 C.ar    1  UNL1        0.0519
     12 C         139.4644  138.7033  163.5039 C.ar    1  UNL1        0.0213
     13 C         138.3894  139.0765  162.5264 C.ar    1  UNL1        0.0032
     14 C         138.5561  138.7573  161.0703 C.ar    1  UNL1        0.0207
     15 C         139.7977  138.0651  160.5916 C.ar    1  UNL1        0.0989
     16 N         140.8726  137.6919  161.5689 N.ar    1  UNL1       -0.2423
     17 C         140.7060  138.0110  163.0251 C.ar    1  UNL1        0.0989
     18 N         140.2662  144.3830  170.1647 N.am    1  UNL1       -0.3252
     19 C         141.0640  143.2218  169.6500 C.2     1  UNL1        0.2455
     20 O         142.5618  143.2476  169.7278 O.2     1  UNL1       -0.2703
     21 H         140.7256  145.1621  170.5536 H       1  UNL1        0.1453
     22 H         139.2832  144.3661  170.1136 H       1  UNL1        0.1453
     23 N         141.3974  142.5836  166.7376 N.pl3   1  UNL1       -0.3337
     24 H         142.3677  142.6261  166.8990 H       1  UNL1        0.1468
     25 C         140.7857  143.3866  165.6282 C.3     1  UNL1        0.0740
     26 C         139.4091  143.9605  165.7886 C.3     1  UNL1        0.0516
     27 C         138.7974  144.7635  164.6791 C.3     1  UNL1        0.1439
     28 O         139.5622  144.9927  163.4093 O.3     1  UNL1       -0.3537
     29 C         140.9387  144.4189  163.2489 C.3     1  UNL1        0.1439
     30 C         141.5505  143.6158  164.3583 C.3     1  UNL1        0.0516
@<TRIPOS>BOND
     1    18    19   am
     2    19    20    2
     3    19     1    1
     4     1     2   ar
     5     2     3   ar
     6     3     4   ar
     7     4     5   ar
     8     5     6   ar
     9     6     7    1
    10     6     8   ar
    11     8    12    1
    12    12    13   ar
    13    13    14   ar
    14    14    15   ar
    15    15    16   ar
    16    16    17   ar
    17     8     9   ar
    18     9    10   ar
    19    10    11   ar
    20    11    23    1
    21    23    25    1
    22    25    26    1
    23    26    27    1
    24    27    28    1
    25    28    29    1
    26    29    30    1
    27    11     1   ar
    28    30    25    1
    29    10     4   ar
    30    17    12   ar
    31    18    21    1
    32    18    22    1
    33    23    24    1
@<TRIPOS>MOLECULE
*****
 30 33 0 0 0
SMALL
GASTEIGER

@<TRIPOS>ATOM
      1 C         140.5408  143.4215  161.2011 C.ar    1  UNL1        0.0853
      2 C         141.6494  144.3647  160.8390 C.ar    1  UNL1        0.1045
      3 N         142.7843  144.5900  161.7936 N.ar    1  UNL1       -0.2435
      4 C         142.8105  143.8721  163.1104 C.ar    1  UNL1        0.0847
      5 C         143.9454  144.0974  164.0650 C.ar    1  UNL1        0.0488
      6 C         143.9716  143.3795  165.3817 C.ar    1  UNL1        0.1416
      7 F         145.1065  143.6048  166.3363 F       1  UNL1       -0.2041
      8 C         142.8630  142.4362  165.7439 C.ar    1  UNL1        0.0291
      9 C         141.7281  142.2109  164.7893 C.ar    1  UNL1        0.0050
     10 C         141.7019  142.9289  163.4725 C.ar    1  UNL1        0.0311
     11 C         140.5670  142.7036  162.5179 C.ar    1  UNL1        0.0519
     12 C         142.8892  141.7183  167.0606 C.ar    1  UNL1        0.0213
     13 C         143.0368  142.4949  168.3355 C.ar    1  UNL1        0.0032
     14 C         143.0631  141.7770  169.6523 C.ar    1  UNL1        0.0207
     15 C         142.9417  140.2825  169.6942 C.ar    1  UNL1        0.0989
     16 N         142.7941  139.5059  168.4195 N.ar    1  UNL1       -0.2423
     17 C         142.7678  140.2238  167.1026 C.ar    1  UNL1        0.0989
     18 N         139.6695  143.1243  158.7716 N.am    1  UNL1       -0.3252
     19 C         139.4059  143.1962  160.2465 C.2     1  UNL1        0.2455
     20 O         138.0074  143.0427  160.7668 O.2     1  UNL1       -0.2703
     21 H         138.9246  142.9765  158.1451 H       1  UNL1        0.1453
     22 H         140.5873  143.2251  158.4301 H       1  UNL1        0.1453
     23 N         139.4583  141.7603  162.8801 N.pl3   1  UNL1       -0.3337
     24 H         138.6240  142.1079  163.2703 H       1  UNL1        0.1468
     25 C         139.6209  140.2874  162.6477 C.3     1  UNL1        0.0740
     26 C         138.6542  139.3197  163.2636 C.3     1  UNL1        0.0516
     27 C         138.8167  137.8468  163.0313 C.3     1  UNL1        0.1439
     28 O         139.9459  137.3414  162.1830 O.3     1  UNL1       -0.3537
     29 C         140.9126  138.3090  161.5671 C.3     1  UNL1        0.1439
     30 C         140.7501  139.7820  161.7995 C.3     1  UNL1        0.0516
@<TRIPOS>BOND
     1    18    19   am
     2    19    20    2
     3    19     1    1
     4     1     2   ar
     5     2     3   ar
     6     3     4   ar
     7     4     5   ar
     8     5     6   ar
     9     6     7    1
    10     6     8   ar
    11     8    12    1
    12    12    13   ar
    13    13    14   ar
    14    14    15   ar
    15    15    16   ar
    16    16    17   ar
    17     8     9   ar
    18     9    10   ar
    19    10    11   ar
    20    11    23    1
    21    23    25    1
    22    25    26    1
    23    26    27    1
    24    27    28    1
    25    28    29    1
    26    29    30    1
    27    11     1   ar
    28    30    25    1
    29    10     4   ar
    30    17    12   ar
    31    18    21    1
    32    18    22    1
    33    23    24    1
@<TRIPOS>MOLECULE
*****
 30 33 0 0 0
SMALL
GASTEIGER

@<TRIPOS>ATOM
      1 C         140.4379  141.5932  168.1931 C.ar    1  UNL1        0.0853
      2 C         139.5337  140.6025  168.8645 C.ar    1  UNL1        0.1045
      3 N         138.9319  139.4796  168.0727 N.ar    1  UNL1       -0.2435
      4 C         139.2342  139.3475  166.6095 C.ar    1  UNL1        0.0847
      5 C         138.6324  138.2246  165.8177 C.ar    1  UNL1        0.0488
      6 C         138.9348  138.0925  164.3545 C.ar    1  UNL1        0.1416
      7 F         138.3329  136.9696  163.5627 F       1  UNL1       -0.2041
      8 C         139.8390  139.0833  163.6830 C.ar    1  UNL1        0.0291
      9 C         140.4408  140.2061  164.4748 C.ar    1  UNL1        0.0050
     10 C         140.1384  140.3382  165.9381 C.ar    1  UNL1        0.0311
     11 C         140.7402  141.4611  166.7299 C.ar    1  UNL1        0.0519
     12 C         140.1413  138.9511  162.2198 C.ar    1  UNL1        0.0213
     13 C         139.1034  139.3235  161.2028 C.ar    1  UNL1        0.0032
     14 C         139.4057  139.1914  159.7396 C.ar    1  UNL1        0.0207
     15 C         140.7459  138.6869  159.2932 C.ar    1  UNL1        0.0989
     16 N         141.7838  138.3145  160.3101 N.ar    1  UNL1       -0.2423
     17 C         141.4815  138.4466  161.7734 C.ar    1  UNL1        0.0989
     18 N         140.1560  143.7716  169.5807 N.am    1  UNL1       -0.3252
     19 C         141.0397  142.7161  168.9849 C.2     1  UNL1        0.2455
     20 O         142.5253  142.7835  169.1810 O.2     1  UNL1       -0.2703
     21 H         140.5510  144.5086  170.1003 H       1  UNL1        0.1453
     22 H         139.1809  143.7273  169.4520 H       1  UNL1        0.1453
     23 N         141.6444  142.4519  166.0584 N.pl3   1  UNL1       -0.3337
     24 H         142.6104  142.4444  166.2484 H       1  UNL1        0.1468
     25 C         141.0769  143.4540  165.0974 C.3     1  UNL1        0.0740
     26 C         141.9568  144.0720  164.0514 C.3     1  UNL1        0.0516
     27 C         141.3892  145.0741  163.0905 C.3     1  UNL1        0.1439
     28 O         139.9418  145.4584  163.1753 O.3     1  UNL1       -0.3537
     29 C         139.0619  144.8405  164.2212 C.3     1  UNL1        0.1439
     30 C         139.6294  143.8383  165.1823 C.3     1  UNL1        0.0516
@<TRIPOS>BOND
     1    18    19   am
     2    19    20    2
     3    19     1    1
     4     1     2   ar
     5     2     3   ar
     6     3     4   ar
     7     4     5   ar
     8     5     6   ar
     9     6     7    1
    10     6     8   ar
    11     8    12    1
    12    12    13   ar
    13    13    14   ar
    14    14    15   ar
    15    15    16   ar
    16    16    17   ar
    17     8     9   ar
    18     9    10   ar
    19    10    11   ar
    20    11    23    1
    21    23    25    1
    22    25    26    1
    23    26    27    1
    24    27    28    1
    25    28    29    1
    26    29    30    1
    27    11     1   ar
    28    30    25    1
    29    10     4   ar
    30    17    12   ar
    31    18    21    1
    32    18    22    1
    33    23    24    1
@<TRIPOS>MOLECULE
*****
 30 33 0 0 0
SMALL
GASTEIGER

@<TRIPOS>ATOM
      1 C         140.3796  140.6827  167.6857 C.ar    1  UNL1        0.0853
      2 C         141.7175  140.8655  168.3387 C.ar    1  UNL1        0.1045
      3 N         142.7970  141.6333  167.6349 N.ar    1  UNL1       -0.2435
      4 C         142.5385  142.2183  166.2781 C.ar    1  UNL1        0.0847
      5 C         143.6180  142.9861  165.5744 C.ar    1  UNL1        0.0488
      6 C         143.3595  143.5711  164.2176 C.ar    1  UNL1        0.1416
      7 F         144.4389  144.3389  163.5138 F       1  UNL1       -0.2041
      8 C         142.0215  143.3884  163.5645 C.ar    1  UNL1        0.0291
      9 C         140.9420  142.6206  164.2683 C.ar    1  UNL1        0.0050
     10 C         141.2006  142.0356  165.6251 C.ar    1  UNL1        0.0311
     11 C         140.1211  141.2678  166.3289 C.ar    1  UNL1        0.0519
     12 C         141.7630  143.9734  162.2077 C.ar    1  UNL1        0.0213
     13 C         140.6473  144.9575  162.0154 C.ar    1  UNL1        0.0032
     14 C         140.3888  145.5425  160.6587 C.ar    1  UNL1        0.0207
     15 C         141.2460  145.1435  159.4941 C.ar    1  UNL1        0.0989
     16 N         142.3616  144.1595  159.6864 N.ar    1  UNL1       -0.2423
     17 C         142.6201  143.5744  161.0432 C.ar    1  UNL1        0.0989
     18 N         139.1268  140.0532  169.8729 N.am    1  UNL1       -0.3252
     19 C         139.3001  139.9150  168.3894 C.2     1  UNL1        0.2455
     20 O         138.3940  139.0090  167.6097 O.2     1  UNL1       -0.2703
     21 H         138.4183  139.5492  170.3348 H       1  UNL1        0.1453
     22 H         139.7216  140.6478  170.3847 H       1  UNL1        0.1453
     23 N         138.7831  141.0850  165.6758 N.pl3   1  UNL1       -0.3337
     24 H         137.9960  141.5629  166.0241 H       1  UNL1        0.1468
     25 C         138.6444  140.1742  164.4921 C.3     1  UNL1        0.0740
     26 C         137.9024  140.6363  163.2731 C.3     1  UNL1        0.0516
     27 C         137.7637  139.7255  162.0894 C.3     1  UNL1        0.1439
     28 O         138.3670  138.3526  162.1247 O.3     1  UNL1       -0.3537
     29 C         139.1090  137.8906  163.3436 C.3     1  UNL1        0.1439
     30 C         139.2478  138.8014  164.5274 C.3     1  UNL1        0.0516
@<TRIPOS>BOND
     1    18    19   am
     2    19    20    2
     3    19     1    1
     4     1     2   ar
     5     2     3   ar
     6     3     4   ar
     7     4     5   ar
     8     5     6   ar
     9     6     7    1
    10     6     8   ar
    11     8    12    1
    12    12    13   ar
    13    13    14   ar
    14    14    15   ar
    15    15    16   ar
    16    16    17   ar
    17     8     9   ar
    18     9    10   ar
    19    10    11   ar
    20    11    23    1
    21    23    25    1
    22    25    26    1
    23    26    27    1
    24    27    28    1
    25    28    29    1
    26    29    30    1
    27    11     1   ar
    28    30    25    1
    29    10     4   ar
    30    17    12   ar
    31    18    21    1
    32    18    22    1
    33    23    24    1
