@<TRIPOS>MOLECULE
*****
 45 48 0 0 0
SMALL
GASTEIGER

@<TRIPOS>ATOM
      1 C         141.3788  140.8590  162.3301 C.3     1  UNL1        0.0808
      2 C         141.3945  140.6469  163.8150 C.ar    1  UNL1        0.0375
      3 C         141.0297  141.7723  164.7372 C.ar    1  UNL1        0.0023
      4 C         141.0454  141.5603  166.2220 C.ar    1  UNL1        0.0183
      5 C         140.6805  142.6856  167.1442 C.ar    1  UNL1        0.0118
      6 C         140.6963  142.4735  168.6291 C.ar    1  UNL1        0.0685
      7 C         141.0770  141.1362  169.1917 C.ar    1  UNL1        0.0118
      8 C         141.4419  140.0109  168.2695 C.ar    1  UNL1        0.0199
      9 C         141.4261  140.2229  166.7847 C.ar    1  UNL1        0.0844
     10 N         141.7910  139.0975  165.8625 N.ar    1  UNL1       -0.2119
     11 C         141.7752  139.3096  164.3776 C.ar    1  UNL1        0.2211
     12 C         140.3314  143.5989  169.5513 C.1     1  UNL1        0.1004
     13 N         139.9665  144.7242  170.4735 N.1     1  UNL1       -0.1908
     14 O         142.1401  138.1843  163.4554 O.3     1  UNL1       -0.4563
     15 C         140.9634  137.2541  163.4524 C.3     1  UNL1        0.2542
     16 C         140.2515  140.3111  161.5061 C.ar    1  UNL1        0.0245
     17 C         138.8309  140.5736  161.9099 C.ar    1  UNL1        0.0200
     18 C         137.7035  140.0256  161.0859 C.ar    1  UNL1        0.1019
     19 N         137.9968  139.2152  159.8582 N.ar    1  UNL1       -0.2076
     20 C         139.4174  138.9527  159.4545 C.ar    1  UNL1        0.2598
     21 C         140.5447  139.5006  160.2785 C.ar    1  UNL1        0.1879
     22 O         139.7107  138.1422  158.2269 O.3     1  UNL1       -0.4541
     23 C         139.9284  138.8273  156.9103 C.3     1  UNL1        0.2543
     24 O         141.9653  139.2382  159.8748 O.3     1  UNL1       -0.4670
     25 C         142.5427  137.8608  160.0152 C.3     1  UNL1        0.2527
     26 C         142.4903  141.6190  161.6692 C.3     1  UNL1        0.1162
     27 O         143.4428  140.5057  161.9908 O.3     1  UNL1       -0.3820
     28 H         144.3258  140.7291  161.6572 H       1  UNL1        0.2107
     29 C         140.2907  144.1910  159.5963 C.ar    1  UNL1        0.2272
     30 C         141.2432  143.0776  159.9179 C.ar    1  UNL1        0.0559
     31 C         141.5379  142.7323  161.3475 C.ar    1  UNL1        0.0117
     32 C         140.8803  143.5003  162.4555 C.ar    1  UNL1        0.0560
     33 C         139.9278  144.6136  162.1339 C.ar    1  UNL1        0.2319
     34 N         139.6331  144.9589  160.7043 N.ar    1  UNL1       -0.1766
     35 C         140.4302  145.8597  157.6098 C.3     1  UNL1        0.2542
     36 O         139.9960  144.5363  158.1666 O.3     1  UNL1       -0.4561
     37 O         139.2702  145.3816  163.2419 O.3     1  UNL1       -0.4067
     38 C         138.6974  144.6537  164.4218 C.3     1  UNL1        0.5097
     39 F         138.7885  145.2573  165.7919 F       1  UNL1       -0.1549
     40 F         138.0335  143.3220  164.2314 F       1  UNL1       -0.1549
     41 C         143.6019  142.3790  161.0083 C.3     1  UNL1        0.0491
     42 C         144.5246  143.2269  161.8329 C.3     1  UNL1        0.0750
     43 N         144.7875  142.8732  163.2667 N.3     1  UNL1       -0.2702
     44 C         145.7434  141.7673  163.6032 C.3     1  UNL1        0.0897
     45 C         144.0944  143.6254  164.3639 C.3     1  UNL1        0.0897
@<TRIPOS>BOND
     1    35    36    1
     2    36    29    1
     3    29    30   ar
     4    30    31   ar
     5    31    26    1
     6    26    27    1
     7    26    41    1
     8    41    42    1
     9    42    43    1
    10    43    44    1
    11    43    45    1
    12    26     1    1
    13     1     2    1
    14     2     3   ar
    15     3     4   ar
    16     4     5   ar
    17     5     6   ar
    18     6    12    1
    19    12    13    3
    20     6     7   ar
    21     7     8   ar
    22     8     9   ar
    23     9    10   ar
    24    10    11   ar
    25    11    14    1
    26    14    15    1
    27     1    16    1
    28    16    17   ar
    29    17    18   ar
    30    18    19   ar
    31    19    20   ar
    32    20    22    1
    33    22    23    1
    34    20    21   ar
    35    21    24    1
    36    24    25    1
    37    31    32   ar
    38    32    33   ar
    39    33    37    1
    40    37    38    1
    41    38    39    1
    42    38    40    1
    43    33    34   ar
    44    34    29   ar
    45    11     2   ar
    46    21    16   ar
    47     9     4   ar
    48    27    28    1
@<TRIPOS>MOLECULE
*****
 45 48 0 0 0
SMALL
GASTEIGER

@<TRIPOS>ATOM
      1 C         141.5846  140.5878  163.0227 C.3     1  UNL1        0.0808
      2 C         141.9104  140.7456  164.4785 C.ar    1  UNL1        0.0375
      3 C         141.1822  141.7646  165.3039 C.ar    1  UNL1        0.0023
      4 C         141.5079  141.9223  166.7595 C.ar    1  UNL1        0.0183
      5 C         140.7797  142.9413  167.5849 C.ar    1  UNL1        0.0118
      6 C         141.1055  143.0991  169.0406 C.ar    1  UNL1        0.0685
      7 C         142.1595  142.2378  169.6709 C.ar    1  UNL1        0.0118
      8 C         142.8878  141.2188  168.8455 C.ar    1  UNL1        0.0199
      9 C         142.5620  141.0611  167.3898 C.ar    1  UNL1        0.0844
     10 N         143.2903  140.0421  166.5644 N.ar    1  UNL1       -0.2119
     11 C         142.9645  139.8843  165.1087 C.ar    1  UNL1        0.2211
     12 C         140.3772  144.1181  169.8660 C.1     1  UNL1        0.1004
     13 N         139.6490  145.1371  170.6914 N.1     1  UNL1       -0.1908
     14 O         143.6927  138.8653  164.2833 O.3     1  UNL1       -0.4563
     15 C         145.0550  139.4383  164.0266 C.3     1  UNL1        0.2542
     16 C         142.4714  141.2084  161.9842 C.ar    1  UNL1        0.0245
     17 C         142.8614  142.6524  162.0968 C.ar    1  UNL1        0.0200
     18 C         143.7481  143.2729  161.0582 C.ar    1  UNL1        0.1019
     19 N         144.2449  142.4494  159.9071 N.ar    1  UNL1       -0.2076
     20 C         143.8549  141.0054  159.7945 C.ar    1  UNL1        0.2598
     21 C         142.9681  140.3848  160.8331 C.ar    1  UNL1        0.1879
     22 O         144.3516  140.1819  158.6434 O.3     1  UNL1       -0.4541
     23 C         143.4848  139.9810  157.4358 C.3     1  UNL1        0.2543
     24 O         142.5781  138.9408  160.7206 O.3     1  UNL1       -0.4670
     25 C         143.6020  137.8677  160.9446 C.3     1  UNL1        0.2527
     26 C         140.3721  139.8096  162.6056 C.3     1  UNL1        0.1162
     27 O         141.0151  138.5456  163.0945 O.3     1  UNL1       -0.3820
     28 H         140.4145  137.7987  162.9456 H       1  UNL1        0.2107
     29 C         138.8778  142.5532  160.1582 C.ar    1  UNL1        0.2272
     30 C         139.5209  141.2893  160.6471 C.ar    1  UNL1        0.0559
     31 C         139.7290  141.0735  162.1168 C.ar    1  UNL1        0.0117
     32 C         139.2940  142.1216  163.0977 C.ar    1  UNL1        0.0560
     33 C         138.6509  143.3855  162.6088 C.ar    1  UNL1        0.2319
     34 N         138.4428  143.6013  161.1391 N.ar    1  UNL1       -0.1766
     35 C         139.7426  143.4200  157.8667 C.3     1  UNL1        0.2542
     36 O         138.6698  142.7689  158.6884 O.3     1  UNL1       -0.4561
     37 O         138.2159  144.4337  163.5897 O.3     1  UNL1       -0.4067
     38 C         139.1289  144.8385  164.7089 C.3     1  UNL1        0.5097
     39 F         140.6116  144.8866  164.4872 F       1  UNL1       -0.1549
     40 F         138.5591  145.1952  166.0499 F       1  UNL1       -0.1549
     41 C         139.1595  139.0313  162.1886 C.3     1  UNL1        0.0491
     42 C         138.0585  138.7729  163.1741 C.3     1  UNL1        0.0750
     43 N         138.3783  138.6125  164.6308 N.3     1  UNL1       -0.2702
     44 C         138.1747  139.7607  165.5743 C.3     1  UNL1        0.0897
     45 C         138.9018  137.3038  165.1440 C.3     1  UNL1        0.0897
@<TRIPOS>BOND
     1    35    36    1
     2    36    29    1
     3    29    30   ar
     4    30    31   ar
     5    31    26    1
     6    26    27    1
     7    26    41    1
     8    41    42    1
     9    42    43    1
    10    43    44    1
    11    43    45    1
    12    26     1    1
    13     1     2    1
    14     2     3   ar
    15     3     4   ar
    16     4     5   ar
    17     5     6   ar
    18     6    12    1
    19    12    13    3
    20     6     7   ar
    21     7     8   ar
    22     8     9   ar
    23     9    10   ar
    24    10    11   ar
    25    11    14    1
    26    14    15    1
    27     1    16    1
    28    16    17   ar
    29    17    18   ar
    30    18    19   ar
    31    19    20   ar
    32    20    22    1
    33    22    23    1
    34    20    21   ar
    35    21    24    1
    36    24    25    1
    37    31    32   ar
    38    32    33   ar
    39    33    37    1
    40    37    38    1
    41    38    39    1
    42    38    40    1
    43    33    34   ar
    44    34    29   ar
    45    11     2   ar
    46    21    16   ar
    47     9     4   ar
    48    27    28    1
@<TRIPOS>MOLECULE
*****
 45 48 0 0 0
SMALL
GASTEIGER

@<TRIPOS>ATOM
      1 C         141.5965  141.7902  162.4173 C.3     1  UNL1        0.0808
      2 C         142.0134  141.8978  163.8543 C.ar    1  UNL1        0.0375
      3 C         141.1751  141.2691  164.9275 C.ar    1  UNL1        0.0023
      4 C         141.5920  141.3767  166.3644 C.ar    1  UNL1        0.0183
      5 C         140.7536  140.7481  167.4377 C.ar    1  UNL1        0.0118
      6 C         141.1706  140.8556  168.8746 C.ar    1  UNL1        0.0685
      7 C         142.4258  141.5919  169.2381 C.ar    1  UNL1        0.0118
      8 C         143.2642  142.2205  168.1649 C.ar    1  UNL1        0.0199
      9 C         142.8473  142.1130  166.7280 C.ar    1  UNL1        0.0844
     10 N         143.6857  142.7416  165.6547 N.ar    1  UNL1       -0.2119
     11 C         143.2687  142.6340  164.2178 C.ar    1  UNL1        0.2211
     12 C         140.3322  140.2270  169.9479 C.1     1  UNL1        0.1004
     13 N         139.4938  139.5983  171.0211 N.1     1  UNL1       -0.1908
     14 O         144.1071  143.2627  163.1445 O.3     1  UNL1       -0.4563
     15 C         143.8906  144.7422  163.2643 C.3     1  UNL1        0.2542
     16 C         142.4750  141.0768  161.4329 C.ar    1  UNL1        0.0245
     17 C         142.8144  139.6306  161.6410 C.ar    1  UNL1        0.0200
     18 C         143.6930  138.9173  160.6565 C.ar    1  UNL1        0.1019
     19 N         144.2321  139.6501  159.4639 N.ar    1  UNL1       -0.2076
     20 C         143.8927  141.0963  159.2557 C.ar    1  UNL1        0.2598
     21 C         143.0141  141.8097  160.2403 C.ar    1  UNL1        0.1879
     22 O         144.4318  141.8291  158.0632 O.3     1  UNL1       -0.4541
     23 C         145.1712  141.0805  156.9942 C.3     1  UNL1        0.2543
     24 O         142.6747  143.2558  160.0322 O.3     1  UNL1       -0.4670
     25 C         141.7500  143.6568  158.9212 C.3     1  UNL1        0.2527
     26 C         140.3009  142.3960  161.9650 C.3     1  UNL1        0.1162
     27 O         140.8003  143.7555  162.3554 O.3     1  UNL1       -0.3820
     28 H         140.1181  144.4179  162.1638 H       1  UNL1        0.2107
     29 C         139.1235  139.3312  159.7355 C.ar    1  UNL1        0.2272
     30 C         139.6229  140.6907  160.1260 C.ar    1  UNL1        0.0559
     31 C         139.8016  141.0365  161.5745 C.ar    1  UNL1        0.0117
     32 C         139.4808  140.0229  162.6327 C.ar    1  UNL1        0.0560
     33 C         138.9815  138.6635  162.2422 C.ar    1  UNL1        0.2319
     34 N         138.8028  138.3176  160.7936 N.ar    1  UNL1       -0.1766
     35 C         139.9118  138.0578  157.6125 C.3     1  UNL1        0.2542
     36 O         138.9449  138.9854  158.2868 O.3     1  UNL1       -0.4561
     37 O         138.6607  137.6498  163.3004 O.3     1  UNL1       -0.4067
     38 C         139.2347  137.7969  164.6784 C.3     1  UNL1        0.5097
     39 F         138.4758  138.5498  165.7306 F       1  UNL1       -0.1549
     40 F         140.5678  137.1911  165.0042 F       1  UNL1       -0.1549
     41 C         139.0054  143.0018  161.5126 C.3     1  UNL1        0.0491
     42 C         138.2660  143.9485  162.4111 C.3     1  UNL1        0.0750
     43 N         138.2302  143.7046  163.8907 N.3     1  UNL1       -0.2702
     44 C         137.6589  142.4253  164.4264 C.3     1  UNL1        0.0897
     45 C         138.7658  144.7401  164.8347 C.3     1  UNL1        0.0897
@<TRIPOS>BOND
     1    35    36    1
     2    36    29    1
     3    29    30   ar
     4    30    31   ar
     5    31    26    1
     6    26    27    1
     7    26    41    1
     8    41    42    1
     9    42    43    1
    10    43    44    1
    11    43    45    1
    12    26     1    1
    13     1     2    1
    14     2     3   ar
    15     3     4   ar
    16     4     5   ar
    17     5     6   ar
    18     6    12    1
    19    12    13    3
    20     6     7   ar
    21     7     8   ar
    22     8     9   ar
    23     9    10   ar
    24    10    11   ar
    25    11    14    1
    26    14    15    1
    27     1    16    1
    28    16    17   ar
    29    17    18   ar
    30    18    19   ar
    31    19    20   ar
    32    20    22    1
    33    22    23    1
    34    20    21   ar
    35    21    24    1
    36    24    25    1
    37    31    32   ar
    38    32    33   ar
    39    33    37    1
    40    37    38    1
    41    38    39    1
    42    38    40    1
    43    33    34   ar
    44    34    29   ar
    45    11     2   ar
    46    21    16   ar
    47     9     4   ar
    48    27    28    1
@<TRIPOS>MOLECULE
*****
 45 48 0 0 0
SMALL
GASTEIGER

@<TRIPOS>ATOM
      1 C         142.0542  141.8356  162.7329 C.3     1  UNL1        0.0808
      2 C         142.3598  141.9603  164.1962 C.ar    1  UNL1        0.0375
      3 C         141.4973  141.2609  165.2047 C.ar    1  UNL1        0.0023
      4 C         141.8029  141.3855  166.6679 C.ar    1  UNL1        0.0183
      5 C         140.9404  140.6862  167.6764 C.ar    1  UNL1        0.0118
      6 C         141.2460  140.8108  169.1397 C.ar    1  UNL1        0.0685
      7 C         142.4140  141.6348  169.5944 C.ar    1  UNL1        0.0118
      8 C         143.2765  142.3341  168.5859 C.ar    1  UNL1        0.0199
      9 C         142.9709  142.2095  167.1227 C.ar    1  UNL1        0.0844
     10 N         143.8334  142.9088  166.1142 N.ar    1  UNL1       -0.2119
     11 C         143.5278  142.7842  164.6509 C.ar    1  UNL1        0.2211
     12 C         140.3835  140.1115  170.1482 C.1     1  UNL1        0.1004
     13 N         139.5211  139.4121  171.1567 N.1     1  UNL1       -0.1908
     14 O         144.3902  143.4835  163.6424 O.3     1  UNL1       -0.4563
     15 C         143.9800  144.9259  163.6769 C.3     1  UNL1        0.2542
     16 C         141.2825  142.9150  162.0333 C.ar    1  UNL1        0.0245
     17 C         139.8652  143.2022  162.4316 C.ar    1  UNL1        0.0200
     18 C         139.0936  144.2816  161.7320 C.ar    1  UNL1        0.1019
     19 N         139.7393  145.0738  160.6340 N.ar    1  UNL1       -0.2076
     20 C         141.1567  144.7866  160.2357 C.ar    1  UNL1        0.2598
     21 C         141.9283  143.7071  160.9354 C.ar    1  UNL1        0.1879
     22 O         141.8024  145.5787  159.1377 O.3     1  UNL1       -0.4541
     23 C         141.1181  145.7165  157.8101 C.3     1  UNL1        0.2543
     24 O         143.3456  143.4199  160.5371 O.3     1  UNL1       -0.4670
     25 C         143.6617  143.0184  159.1267 C.3     1  UNL1        0.2527
     26 C         142.5202  140.6316  161.9693 C.3     1  UNL1        0.1162
     27 O         143.9291  141.1437  162.0216 O.3     1  UNL1       -0.3820
     28 H         144.5169  140.5200  161.5673 H       1  UNL1        0.2107
     29 C         138.9411  139.6369  160.5726 C.ar    1  UNL1        0.2272
     30 C         140.3500  140.1491  160.6249 C.ar    1  UNL1        0.0559
     31 C         141.1113  140.1194  161.9170 C.ar    1  UNL1        0.0117
     32 C         140.4638  139.5776  163.1567 C.ar    1  UNL1        0.0560
     33 C         139.0549  139.0654  163.1044 C.ar    1  UNL1        0.2319
     34 N         138.2936  139.0951  161.8124 N.ar    1  UNL1       -0.1766
     35 C         138.2172  140.8918  158.4159 C.3     1  UNL1        0.2542
     36 O         138.1798  139.6666  159.2805 O.3     1  UNL1       -0.4561
     37 O         138.4073  138.5236  164.3443 O.3     1  UNL1       -0.4067
     38 C         138.1237  139.4346  165.5017 C.3     1  UNL1        0.5097
     39 F         137.7370  138.8593  166.8318 F       1  UNL1       -0.1549
     40 F         138.2267  140.9211  165.3288 F       1  UNL1       -0.1549
     41 C         142.9863  139.4275  161.2057 C.3     1  UNL1        0.0491
     42 C         143.8365  139.5985  159.9817 C.3     1  UNL1        0.0750
     43 N         143.3610  139.0744  158.6591 N.3     1  UNL1       -0.2702
     44 C         142.6143  137.7752  158.5918 C.3     1  UNL1        0.0897
     45 C         143.6323  139.8495  157.4039 C.3     1  UNL1        0.0897
@<TRIPOS>BOND
     1    35    36    1
     2    36    29    1
     3    29    30   ar
     4    30    31   ar
     5    31    26    1
     6    26    27    1
     7    26    41    1
     8    41    42    1
     9    42    43    1
    10    43    44    1
    11    43    45    1
    12    26     1    1
    13     1     2    1
    14     2     3   ar
    15     3     4   ar
    16     4     5   ar
    17     5     6   ar
    18     6    12    1
    19    12    13    3
    20     6     7   ar
    21     7     8   ar
    22     8     9   ar
    23     9    10   ar
    24    10    11   ar
    25    11    14    1
    26    14    15    1
    27     1    16    1
    28    16    17   ar
    29    17    18   ar
    30    18    19   ar
    31    19    20   ar
    32    20    22    1
    33    22    23    1
    34    20    21   ar
    35    21    24    1
    36    24    25    1
    37    31    32   ar
    38    32    33   ar
    39    33    37    1
    40    37    38    1
    41    38    39    1
    42    38    40    1
    43    33    34   ar
    44    34    29   ar
    45    11     2   ar
    46    21    16   ar
    47     9     4   ar
    48    27    28    1
@<TRIPOS>MOLECULE
*****
 45 48 0 0 0
SMALL
GASTEIGER

@<TRIPOS>ATOM
      1 C         141.4091  142.4112  162.4524 C.3     1  UNL1        0.0808
      2 C         141.8811  142.3554  163.8752 C.ar    1  UNL1        0.0375
      3 C         141.0244  141.7117  164.9248 C.ar    1  UNL1        0.0023
      4 C         141.4964  141.6558  166.3475 C.ar    1  UNL1        0.0183
      5 C         140.6397  141.0121  167.3972 C.ar    1  UNL1        0.0118
      6 C         141.1117  140.9563  168.8199 C.ar    1  UNL1        0.0685
      7 C         142.4403  141.5441  169.1930 C.ar    1  UNL1        0.0118
      8 C         143.2969  142.1878  168.1433 C.ar    1  UNL1        0.0199
      9 C         142.8250  142.2437  166.7206 C.ar    1  UNL1        0.0844
     10 N         143.6817  142.8874  165.6710 N.ar    1  UNL1       -0.2119
     11 C         143.2097  142.9432  164.2482 C.ar    1  UNL1        0.2211
     12 C         140.2550  140.3126  169.8696 C.1     1  UNL1        0.1004
     13 N         139.3983  139.6688  170.9192 N.1     1  UNL1       -0.1908
     14 O         144.0664  143.5869  163.1986 O.3     1  UNL1       -0.4563
     15 C         143.8674  145.0657  163.3523 C.3     1  UNL1        0.2542
     16 C         142.2735  141.8677  161.3536 C.ar    1  UNL1        0.0245
     17 C         142.6612  142.7454  160.2006 C.ar    1  UNL1        0.0200
     18 C         143.5255  142.2018  159.1018 C.ar    1  UNL1        0.1019
     19 N         144.0023  140.7806  159.1560 N.ar    1  UNL1       -0.2076
     20 C         143.6146  139.9029  160.3090 C.ar    1  UNL1        0.2598
     21 C         142.7502  140.4465  161.4078 C.ar    1  UNL1        0.1879
     22 O         144.0913  138.4817  160.3632 O.3     1  UNL1       -0.4541
     23 C         143.1325  137.3586  160.1003 C.3     1  UNL1        0.2543
     24 O         142.3625  139.5689  162.5608 O.3     1  UNL1       -0.4670
     25 C         143.3978  139.1394  163.5577 C.3     1  UNL1        0.2527
     26 C         140.0728  143.0106  162.1285 C.3     1  UNL1        0.1162
     27 O         140.5913  144.3679  162.5010 O.3     1  UNL1       -0.3820
     28 H         139.8883  145.0259  162.3838 H       1  UNL1        0.2107
     29 C         138.7690  139.9635  159.9455 C.ar    1  UNL1        0.2272
     30 C         139.2875  141.3209  160.3179 C.ar    1  UNL1        0.0559
     31 C         139.5542  141.6532  161.7561 C.ar    1  UNL1        0.0117
     32 C         139.3025  140.6282  162.8218 C.ar    1  UNL1        0.0560
     33 C         138.7839  139.2708  162.4494 C.ar    1  UNL1        0.2319
     34 N         138.5172  138.9385  161.0112 N.ar    1  UNL1       -0.1766
     35 C         138.4210  140.7277  157.4868 C.3     1  UNL1        0.2542
     36 O         138.5022  139.6313  158.5073 O.3     1  UNL1       -0.4561
     37 O         138.5322  138.2457  163.5152 O.3     1  UNL1       -0.4067
     38 C         138.8824  138.5462  164.9425 C.3     1  UNL1        0.5097
     39 F         140.2624  138.2553  165.4533 F       1  UNL1       -0.1549
     40 F         137.8526  139.1377  165.8589 F       1  UNL1       -0.1549
     41 C         138.7364  143.6099  161.8047 C.3     1  UNL1        0.0491
     42 C         137.9945  144.3952  162.8454 C.3     1  UNL1        0.0750
     43 N         138.0632  143.9833  164.2861 N.3     1  UNL1       -0.2702
     44 C         138.6836  144.8991  165.2993 C.3     1  UNL1        0.0897
     45 C         137.5115  142.6555  164.7137 C.3     1  UNL1        0.0897
@<TRIPOS>BOND
     1    35    36    1
     2    36    29    1
     3    29    30   ar
     4    30    31   ar
     5    31    26    1
     6    26    27    1
     7    26    41    1
     8    41    42    1
     9    42    43    1
    10    43    44    1
    11    43    45    1
    12    26     1    1
    13     1     2    1
    14     2     3   ar
    15     3     4   ar
    16     4     5   ar
    17     5     6   ar
    18     6    12    1
    19    12    13    3
    20     6     7   ar
    21     7     8   ar
    22     8     9   ar
    23     9    10   ar
    24    10    11   ar
    25    11    14    1
    26    14    15    1
    27     1    16    1
    28    16    17   ar
    29    17    18   ar
    30    18    19   ar
    31    19    20   ar
    32    20    22    1
    33    22    23    1
    34    20    21   ar
    35    21    24    1
    36    24    25    1
    37    31    32   ar
    38    32    33   ar
    39    33    37    1
    40    37    38    1
    41    38    39    1
    42    38    40    1
    43    33    34   ar
    44    34    29   ar
    45    11     2   ar
    46    21    16   ar
    47     9     4   ar
    48    27    28    1
@<TRIPOS>MOLECULE
*****
 45 48 0 0 0
SMALL
GASTEIGER

@<TRIPOS>ATOM
      1 C         140.5163  141.1883  162.1943 C.3     1  UNL1        0.0808
      2 C         140.2755  140.9357  163.6532 C.ar    1  UNL1        0.0375
      3 C         141.0410  141.7103  164.6847 C.ar    1  UNL1        0.0023
      4 C         140.8002  141.4578  166.1436 C.ar    1  UNL1        0.0183
      5 C         141.5656  142.2324  167.1751 C.ar    1  UNL1        0.0118
      6 C         141.3248  141.9799  168.6340 C.ar    1  UNL1        0.0685
      7 C         140.3187  140.9528  169.0613 C.ar    1  UNL1        0.0118
      8 C         139.5532  140.1782  168.0297 C.ar    1  UNL1        0.0199
      9 C         139.7940  140.4307  166.5709 C.ar    1  UNL1        0.0844
     10 N         139.0286  139.6561  165.5394 N.ar    1  UNL1       -0.2119
     11 C         139.2694  139.9086  164.0805 C.ar    1  UNL1        0.2211
     12 C         142.0903  142.7545  169.6656 C.1     1  UNL1        0.1004
     13 N         142.8557  143.5291  170.6971 N.1     1  UNL1       -0.1908
     14 O         138.5039  139.1340  163.0489 O.3     1  UNL1       -0.4563
     15 C         138.9073  137.7001  163.2252 C.3     1  UNL1        0.2542
     16 C         140.9497  140.0646  161.3002 C.ar    1  UNL1        0.0245
     17 C         142.2248  139.3279  161.5858 C.ar    1  UNL1        0.0200
     18 C         142.6582  138.2043  160.6916 C.ar    1  UNL1        0.1019
     19 N         141.8165  137.8173  159.5118 N.ar    1  UNL1       -0.2076
     20 C         140.5415  138.5539  159.2262 C.ar    1  UNL1        0.2598
     21 C         140.1081  139.6776  160.1204 C.ar    1  UNL1        0.1879
     22 O         139.6998  138.1670  158.0465 O.3     1  UNL1       -0.4541
     23 C         140.3514  137.8375  156.7362 C.3     1  UNL1        0.2543
     24 O         138.8330  140.4143  159.8348 O.3     1  UNL1       -0.4670
     25 C         138.7416  141.3213  158.6435 C.3     1  UNL1        0.2527
     26 C         140.3237  142.5645  161.6296 C.3     1  UNL1        0.1162
     27 O         138.8665  142.5045  161.9805 O.3     1  UNL1       -0.3820
     28 H         138.4350  143.3307  161.7119 H       1  UNL1        0.2107
     29 C         143.6597  142.8008  159.4931 C.ar    1  UNL1        0.2272
     30 C         142.2026  142.7409  159.8440 C.ar    1  UNL1        0.0559
     31 C         141.7808  142.6245  161.2787 C.ar    1  UNL1        0.0117
     32 C         142.8162  142.5681  162.3626 C.ar    1  UNL1        0.0560
     33 C         144.2734  142.6281  162.0117 C.ar    1  UNL1        0.2319
     34 N         144.6951  142.7445  160.5769 N.ar    1  UNL1       -0.1766
     35 C         145.1569  142.0221  157.5177 C.3     1  UNL1        0.2542
     36 O         144.0815  142.9172  158.0582 O.3     1  UNL1       -0.4561
     37 O         145.3088  142.5717  163.0956 O.3     1  UNL1       -0.4067
     38 C         144.8879  142.4251  164.5279 C.3     1  UNL1        0.5097
     39 F         144.3470  141.1156  165.0203 F       1  UNL1       -0.1549
     40 F         145.0079  143.5881  165.4677 F       1  UNL1       -0.1549
     41 C         140.1310  143.9407  161.0649 C.3     1  UNL1        0.0491
     42 C         139.6620  145.0563  161.9514 C.3     1  UNL1        0.0750
     43 N         140.0991  145.1090  163.3853 N.3     1  UNL1       -0.2702
     44 C         141.5220  145.4414  163.7239 C.3     1  UNL1        0.0897
     45 C         139.1131  144.8293  164.4807 C.3     1  UNL1        0.0897
@<TRIPOS>BOND
     1    35    36    1
     2    36    29    1
     3    29    30   ar
     4    30    31   ar
     5    31    26    1
     6    26    27    1
     7    26    41    1
     8    41    42    1
     9    42    43    1
    10    43    44    1
    11    43    45    1
    12    26     1    1
    13     1     2    1
    14     2     3   ar
    15     3     4   ar
    16     4     5   ar
    17     5     6   ar
    18     6    12    1
    19    12    13    3
    20     6     7   ar
    21     7     8   ar
    22     8     9   ar
    23     9    10   ar
    24    10    11   ar
    25    11    14    1
    26    14    15    1
    27     1    16    1
    28    16    17   ar
    29    17    18   ar
    30    18    19   ar
    31    19    20   ar
    32    20    22    1
    33    22    23    1
    34    20    21   ar
    35    21    24    1
    36    24    25    1
    37    31    32   ar
    38    32    33   ar
    39    33    37    1
    40    37    38    1
    41    38    39    1
    42    38    40    1
    43    33    34   ar
    44    34    29   ar
    45    11     2   ar
    46    21    16   ar
    47     9     4   ar
    48    27    28    1
@<TRIPOS>MOLECULE
*****
 45 48 0 0 0
SMALL
GASTEIGER

@<TRIPOS>ATOM
      1 C         142.0297  141.9082  162.7329 C.3     1  UNL1        0.0808
      2 C         142.3430  142.0099  164.1963 C.ar    1  UNL1        0.0375
      3 C         141.4749  141.3099  165.1995 C.ar    1  UNL1        0.0023
      4 C         141.7882  141.4115  166.6629 C.ar    1  UNL1        0.0183
      5 C         140.9201  140.7115  167.6661 C.ar    1  UNL1        0.0118
      6 C         141.2335  140.8131  169.1295 C.ar    1  UNL1        0.0685
      7 C         142.4147  141.6148  169.5897 C.ar    1  UNL1        0.0118
      8 C         143.2828  142.3149  168.5865 C.ar    1  UNL1        0.0199
      9 C         142.9695  142.2133  167.1231 C.ar    1  UNL1        0.0844
     10 N         143.8376  142.9133  166.1199 N.ar    1  UNL1       -0.2119
     11 C         143.5243  142.8116  164.6565 C.ar    1  UNL1        0.2211
     12 C         140.3654  140.1131  170.1327 C.1     1  UNL1        0.1004
     13 N         139.4974  139.4130  171.1360 N.1     1  UNL1       -0.1908
     14 O         144.3923  143.5117  163.6532 O.3     1  UNL1       -0.4563
     15 C         143.9625  144.9487  163.6660 C.3     1  UNL1        0.2542
     16 C         141.2663  143.0049  162.0513 C.ar    1  UNL1        0.0245
     17 C         139.8695  143.3311  162.4899 C.ar    1  UNL1        0.0200
     18 C         139.1062  144.4278  161.8084 C.ar    1  UNL1        0.1019
     19 N         139.7397  145.1984  160.6882 N.ar    1  UNL1       -0.2076
     20 C         141.1366  144.8723  160.2495 C.ar    1  UNL1        0.2598
     21 C         141.8999  143.7755  160.9312 C.ar    1  UNL1        0.1879
     22 O         141.7701  145.6428  159.1294 O.3     1  UNL1       -0.4541
     23 C         141.0694  145.7582  157.8082 C.3     1  UNL1        0.2543
     24 O         143.2968  143.4493  160.4925 O.3     1  UNL1       -0.4670
     25 C         143.5665  143.0749  159.0652 C.3     1  UNL1        0.2527
     26 C         142.4797  140.7098  161.9510 C.3     1  UNL1        0.1162
     27 O         143.8904  141.2188  161.9829 O.3     1  UNL1       -0.3820
     28 H         144.4688  140.5979  161.5131 H       1  UNL1        0.2107
     29 C         139.1129  138.9206  163.0525 C.ar    1  UNL1        0.2272
     30 C         140.5236  139.4296  163.0843 C.ar    1  UNL1        0.0559
     31 C         141.0691  140.2008  161.9192 C.ar    1  UNL1        0.0117
     32 C         140.2040  140.4631  160.7223 C.ar    1  UNL1        0.0560
     33 C         138.7933  139.9541  160.6904 C.ar    1  UNL1        0.2319
     34 N         138.2478  139.1829  161.8555 N.ar    1  UNL1       -0.1766
     35 C         138.4195  138.8142  165.5541 C.3     1  UNL1        0.2542
     36 O         138.5674  138.1493  164.2177 O.3     1  UNL1       -0.4561
     37 O         137.9282  140.2164  159.4934 O.3     1  UNL1       -0.4067
     38 C         138.2886  141.3108  158.5329 C.3     1  UNL1        0.5097
     39 F         138.3216  142.7364  158.9983 F       1  UNL1       -0.1549
     40 F         138.6159  140.9795  157.1070 F       1  UNL1       -0.1549
     41 C         142.9298  139.5114  161.1692 C.3     1  UNL1        0.0491
     42 C         143.7767  139.6900  159.9440 C.3     1  UNL1        0.0750
     43 N         143.3458  139.0867  158.6400 N.3     1  UNL1       -0.2702
     44 C         142.6703  137.7477  158.6200 C.3     1  UNL1        0.0897
     45 C         143.5905  139.8227  157.3560 C.3     1  UNL1        0.0897
@<TRIPOS>BOND
     1    35    36    1
     2    36    29    1
     3    29    30   ar
     4    30    31   ar
     5    31    26    1
     6    26    27    1
     7    26    41    1
     8    41    42    1
     9    42    43    1
    10    43    44    1
    11    43    45    1
    12    26     1    1
    13     1     2    1
    14     2     3   ar
    15     3     4   ar
    16     4     5   ar
    17     5     6   ar
    18     6    12    1
    19    12    13    3
    20     6     7   ar
    21     7     8   ar
    22     8     9   ar
    23     9    10   ar
    24    10    11   ar
    25    11    14    1
    26    14    15    1
    27     1    16    1
    28    16    17   ar
    29    17    18   ar
    30    18    19   ar
    31    19    20   ar
    32    20    22    1
    33    22    23    1
    34    20    21   ar
    35    21    24    1
    36    24    25    1
    37    31    32   ar
    38    32    33   ar
    39    33    37    1
    40    37    38    1
    41    38    39    1
    42    38    40    1
    43    33    34   ar
    44    34    29   ar
    45    11     2   ar
    46    21    16   ar
    47     9     4   ar
    48    27    28    1
@<TRIPOS>MOLECULE
*****
 45 48 0 0 0
SMALL
GASTEIGER

@<TRIPOS>ATOM
      1 C         140.6652  140.5256  162.4498 C.3     1  UNL1        0.0808
      2 C         140.4372  140.3791  163.9251 C.ar    1  UNL1        0.0375
      3 C         140.5398  141.5768  164.8224 C.ar    1  UNL1        0.0023
      4 C         140.3117  141.4304  166.2977 C.ar    1  UNL1        0.0183
      5 C         140.4143  142.6281  167.1949 C.ar    1  UNL1        0.0118
      6 C         140.1862  142.4816  168.6703 C.ar    1  UNL1        0.0685
      7 C         139.8557  141.1376  169.2483 C.ar    1  UNL1        0.0118
      8 C         139.7531  139.9399  168.3511 C.ar    1  UNL1        0.0199
      9 C         139.9811  140.0863  166.8758 C.ar    1  UNL1        0.0844
     10 N         139.8786  138.8886  165.9785 N.ar    1  UNL1       -0.2119
     11 C         140.1066  139.0351  164.5032 C.ar    1  UNL1        0.2211
     12 C         140.2888  143.6793  169.5675 C.1     1  UNL1        0.1004
     13 N         140.3913  144.8770  170.4648 N.1     1  UNL1       -0.1908
     14 O         140.0041  137.8374  163.6059 O.3     1  UNL1       -0.4563
     15 C         141.1156  136.9174  164.0158 C.3     1  UNL1        0.2542
     16 C         141.7318  139.7176  161.7719 C.ar    1  UNL1        0.0245
     17 C         143.1255  139.6999  162.3262 C.ar    1  UNL1        0.0200
     18 C         144.1921  138.8919  161.6483 C.ar    1  UNL1        0.1019
     19 N         143.8649  138.1015  160.4160 N.ar    1  UNL1       -0.2076
     20 C         142.4712  138.1193  159.8617 C.ar    1  UNL1        0.2598
     21 C         141.4047  138.9273  160.5397 C.ar    1  UNL1        0.1879
     22 O         142.1441  137.3290  158.6295 O.3     1  UNL1       -0.4541
     23 C         142.7899  137.6779  157.3214 C.3     1  UNL1        0.2543
     24 O         140.0110  138.9450  159.9853 O.3     1  UNL1       -0.4670
     25 C         139.7521  139.5221  158.6251 C.3     1  UNL1        0.2527
     26 C         139.8267  141.4800  161.6524 C.3     1  UNL1        0.1162
     27 O         138.6127  140.6428  161.9269 O.3     1  UNL1       -0.3820
     28 H         137.8398  141.0443  161.5000 H       1  UNL1        0.2107
     29 C         143.0324  143.7439  162.2422 C.ar    1  UNL1        0.2272
     30 C         141.8185  142.9067  162.5168 C.ar    1  UNL1        0.0559
     31 C         141.0407  142.3172  161.3778 C.ar    1  UNL1        0.0117
     32 C         141.4769  142.5648  159.9641 C.ar    1  UNL1        0.0560
     33 C         142.6908  143.4020  159.6896 C.ar    1  UNL1        0.2319
     34 N         143.4686  143.9915  160.8286 N.ar    1  UNL1       -0.1766
     35 C         143.8513  143.6294  164.7052 C.3     1  UNL1        0.2542
     36 O         143.8102  144.3334  163.3813 O.3     1  UNL1       -0.4561
     37 O         143.1270  143.6496  158.2758 O.3     1  UNL1       -0.4067
     38 C         142.2917  144.5079  157.3727 C.3     1  UNL1        0.5097
     39 F         141.1616  143.9008  156.5954 F       1  UNL1       -0.1549
     40 F         142.5867  145.9733  157.2468 F       1  UNL1       -0.1549
     41 C         138.9881  142.4344  160.8550 C.3     1  UNL1        0.0491
     42 C         137.9440  143.2668  161.5384 C.3     1  UNL1        0.0750
     43 N         138.3459  144.2629  162.5854 N.3     1  UNL1       -0.2702
     44 C         137.8886  144.0868  164.0031 C.3     1  UNL1        0.0897
     45 C         139.2052  145.4352  162.2146 C.3     1  UNL1        0.0897
@<TRIPOS>BOND
     1    35    36    1
     2    36    29    1
     3    29    30   ar
     4    30    31   ar
     5    31    26    1
     6    26    27    1
     7    26    41    1
     8    41    42    1
     9    42    43    1
    10    43    44    1
    11    43    45    1
    12    26     1    1
    13     1     2    1
    14     2     3   ar
    15     3     4   ar
    16     4     5   ar
    17     5     6   ar
    18     6    12    1
    19    12    13    3
    20     6     7   ar
    21     7     8   ar
    22     8     9   ar
    23     9    10   ar
    24    10    11   ar
    25    11    14    1
    26    14    15    1
    27     1    16    1
    28    16    17   ar
    29    17    18   ar
    30    18    19   ar
    31    19    20   ar
    32    20    22    1
    33    22    23    1
    34    20    21   ar
    35    21    24    1
    36    24    25    1
    37    31    32   ar
    38    32    33   ar
    39    33    37    1
    40    37    38    1
    41    38    39    1
    42    38    40    1
    43    33    34   ar
    44    34    29   ar
    45    11     2   ar
    46    21    16   ar
    47     9     4   ar
    48    27    28    1
@<TRIPOS>MOLECULE
*****
 45 48 0 0 0
SMALL
GASTEIGER

@<TRIPOS>ATOM
      1 C         141.8103  141.5612  161.9967 C.3     1  UNL1        0.0808
      2 C         142.0715  141.5912  163.4736 C.ar    1  UNL1        0.0375
      3 C         140.9995  141.1676  164.4335 C.ar    1  UNL1        0.0023
      4 C         141.2607  141.1976  165.9103 C.ar    1  UNL1        0.0183
      5 C         140.1887  140.7740  166.8702 C.ar    1  UNL1        0.0118
      6 C         140.4499  140.8040  168.3471 C.ar    1  UNL1        0.0685
      7 C         141.7830  141.2577  168.8639 C.ar    1  UNL1        0.0118
      8 C         142.8549  141.6813  167.9039 C.ar    1  UNL1        0.0199
      9 C         142.5938  141.6513  166.4272 C.ar    1  UNL1        0.0844
     10 N         143.6657  142.0749  165.4672 N.ar    1  UNL1       -0.2119
     11 C         143.4045  142.0449  163.9904 C.ar    1  UNL1        0.2211
     12 C         139.3780  140.3804  169.3070 C.1     1  UNL1        0.1004
     13 N         138.3060  139.9568  170.2670 N.1     1  UNL1       -0.1908
     14 O         144.4765  142.4685  163.0304 O.3     1  UNL1       -0.4563
     15 C         145.7204  141.7453  163.4544 C.3     1  UNL1        0.2542
     16 C         141.5322  142.8368  161.2582 C.ar    1  UNL1        0.0245
     17 C         140.5129  143.8023  161.7862 C.ar    1  UNL1        0.0200
     18 C         140.2348  145.0779  161.0477 C.ar    1  UNL1        0.1019
     19 N         140.9761  145.3880  159.7810 N.ar    1  UNL1       -0.2076
     20 C         141.9954  144.4226  159.2530 C.ar    1  UNL1        0.2598
     21 C         142.2735  143.1469  159.9916 C.ar    1  UNL1        0.1879
     22 O         142.7367  144.7327  157.9864 O.3     1  UNL1       -0.4541
     23 C         141.9784  145.0083  156.7219 C.3     1  UNL1        0.2543
     24 O         143.2928  142.1815  159.4636 O.3     1  UNL1       -0.4670
     25 C         144.7539  142.5083  159.5559 C.3     1  UNL1        0.2527
     26 C         141.8272  140.2555  161.2585 C.3     1  UNL1        0.1162
     27 O         143.2831  140.0923  161.5805 O.3     1  UNL1       -0.3820
     28 H         143.6072  139.2611  161.1999 H       1  UNL1        0.2107
     29 C         138.4189  140.3069  159.2261 C.ar    1  UNL1        0.2272
     30 C         139.8748  140.1437  159.5481 C.ar    1  UNL1        0.0559
     31 C         140.3713  140.4187  160.9365 C.ar    1  UNL1        0.0117
     32 C         139.4118  140.8570  162.0030 C.ar    1  UNL1        0.0560
     33 C         137.9559  141.0202  161.6810 C.ar    1  UNL1        0.2319
     34 N         137.4594  140.7452  160.2925 N.ar    1  UNL1       -0.1766
     35 C         137.4471  141.1621  156.9734 C.3     1  UNL1        0.2542
     36 O         137.9224  140.0319  157.8376 O.3     1  UNL1       -0.4561
     37 O         136.9965  141.4584  162.7475 O.3     1  UNL1       -0.4067
     38 C         137.3680  142.5750  163.6778 C.3     1  UNL1        0.5097
     39 F         137.8526  142.2669  165.0634 F       1  UNL1       -0.1549
     40 F         137.2548  143.9997  163.2223 F       1  UNL1       -0.1549
     41 C         141.8441  138.9499  160.5203 C.3     1  UNL1        0.0491
     42 C         143.0793  138.5193  159.7862 C.3     1  UNL1        0.0750
     43 N         143.0504  138.3670  158.2943 N.3     1  UNL1       -0.2702
     44 C         143.3572  139.5424  157.4143 C.3     1  UNL1        0.0897
     45 C         142.7146  137.0393  157.6822 C.3     1  UNL1        0.0897
@<TRIPOS>BOND
     1    35    36    1
     2    36    29    1
     3    29    30   ar
     4    30    31   ar
     5    31    26    1
     6    26    27    1
     7    26    41    1
     8    41    42    1
     9    42    43    1
    10    43    44    1
    11    43    45    1
    12    26     1    1
    13     1     2    1
    14     2     3   ar
    15     3     4   ar
    16     4     5   ar
    17     5     6   ar
    18     6    12    1
    19    12    13    3
    20     6     7   ar
    21     7     8   ar
    22     8     9   ar
    23     9    10   ar
    24    10    11   ar
    25    11    14    1
    26    14    15    1
    27     1    16    1
    28    16    17   ar
    29    17    18   ar
    30    18    19   ar
    31    19    20   ar
    32    20    22    1
    33    22    23    1
    34    20    21   ar
    35    21    24    1
    36    24    25    1
    37    31    32   ar
    38    32    33   ar
    39    33    37    1
    40    37    38    1
    41    38    39    1
    42    38    40    1
    43    33    34   ar
    44    34    29   ar
    45    11     2   ar
    46    21    16   ar
    47     9     4   ar
    48    27    28    1
