@<TRIPOS>MOLECULE
*****
 26 29 0 0 0
SMALL
GASTEIGER

@<TRIPOS>ATOM
      1 N         139.1523  138.9936  165.2739 N.ar    1  UNL1       -0.2142
      2 N         140.0851  140.1169  164.9303 N.ar    1  UNL1       -0.1692
      3 C         140.5123  141.0880  165.9906 C.ar    1  UNL1        0.1022
      4 C         140.0066  140.9360  167.3947 C.ar    1  UNL1        0.1191
      5 N         140.4337  141.9072  168.4550 N.ar    1  UNL1       -0.2393
      6 C         139.9280  141.7551  169.8589 C.ar    1  UNL1        0.1195
      7 C         138.9951  140.6318  170.2025 C.ar    1  UNL1        0.1197
      8 N         138.5680  139.6607  169.1422 N.ar    1  UNL1       -0.2358
      9 C         139.0737  139.8127  167.7383 C.ar    1  UNL1        0.1574
     10 C         138.6465  138.8415  166.6779 C.ar    1  UNL1        0.2956
     11 O         137.7137  137.7183  167.0215 O.2     1  UNL1       -0.2638
     12 C         138.7251  138.0224  164.2135 C.3     1  UNL1        0.1466
     13 C         141.4522  137.5928  162.4735 C.3     1  UNL1        0.0897
     14 N         140.1632  138.1671  161.9650 N.3     1  UNL1       -0.2709
     15 C         139.9015  138.6448  160.5674 C.3     1  UNL1        0.0722
     16 C         138.4861  139.1376  160.5035 C.3     1  UNL1        0.0188
     17 C         137.8732  138.9644  161.8615 C.3     1  UNL1        0.0194
     18 C         138.9097  138.3646  162.7648 C.3     1  UNL1        0.0822
     19 C         141.4452  142.2113  165.6470 C.3     1  UNL1        0.0754
     20 C         141.0133  143.2769  164.6837 C.ar    1  UNL1       -0.0160
     21 C         139.5920  143.7566  164.6837 C.ar    1  UNL1       -0.0030
     22 C         139.1601  144.8221  163.7204 C.ar    1  UNL1        0.0111
     23 C         140.1494  145.4081  162.7572 C.ar    1  UNL1        0.0577
     24 CL        139.7175  146.4737  161.7939 Cl      1  UNL1       -0.0822
     25 C         141.5706  144.9285  162.7571 C.ar    1  UNL1        0.0111
     26 C         142.0026  143.8628  163.7205 C.ar    1  UNL1       -0.0030
@<TRIPOS>BOND
     1    13    14    1
     2    14    15    1
     3    15    16    1
     4    16    17    1
     5    17    18    1
     6    18    12    1
     7    12     1    1
     8     1     2   ar
     9     2     3   ar
    10     3    19    1
    11    19    20    1
    12    20    21   ar
    13    21    22   ar
    14    22    23   ar
    15    23    24    1
    16    23    25   ar
    17    25    26   ar
    18     3     4   ar
    19     4     5   ar
    20     5     6   ar
    21     6     7   ar
    22     7     8   ar
    23     8     9   ar
    24     9    10   ar
    25    10    11    2
    26    18    14    1
    27    10     1   ar
    28    26    20   ar
    29     9     4   ar
@<TRIPOS>MOLECULE
*****
 26 29 0 0 0
SMALL
GASTEIGER

@<TRIPOS>ATOM
      1 N         142.6029  141.2660  166.1571 N.ar    1  UNL1       -0.2142
      2 N         141.5117  140.3645  165.6605 N.ar    1  UNL1       -0.1692
      3 C         140.4247  139.9188  166.5931 C.ar    1  UNL1        0.1022
      4 C         140.4289  140.3744  168.0222 C.ar    1  UNL1        0.1191
      5 N         139.3419  139.9287  168.9548 N.ar    1  UNL1       -0.2393
      6 C         139.3461  140.3843  170.3838 C.ar    1  UNL1        0.1195
      7 C         140.4374  141.2857  170.8804 C.ar    1  UNL1        0.1197
      8 N         141.5244  141.7315  169.9479 N.ar    1  UNL1       -0.2358
      9 C         141.5202  141.2758  168.5188 C.ar    1  UNL1        0.1574
     10 C         142.6072  141.7216  167.5862 C.ar    1  UNL1        0.2956
     11 O         143.6985  142.6230  168.0828 O.2     1  UNL1       -0.2638
     12 C         143.6900  141.7117  165.2245 C.3     1  UNL1        0.1466
     13 C         141.9392  141.8406  162.4736 C.3     1  UNL1        0.0897
     14 N         142.6844  142.9824  163.0987 N.3     1  UNL1       -0.2709
     15 C         142.7557  144.3840  162.5691 C.3     1  UNL1        0.0722
     16 C         143.6046  145.1911  163.5063 C.3     1  UNL1        0.0188
     17 C         144.0579  144.2882  164.6150 C.3     1  UNL1        0.0194
     18 C         143.4892  142.9232  164.3632 C.3     1  UNL1        0.0822
     19 C         139.3334  139.0174  166.0965 C.3     1  UNL1        0.0754
     20 C         138.8138  139.1689  164.6976 C.ar    1  UNL1       -0.0160
     21 C         138.9448  138.0370  163.7221 C.ar    1  UNL1       -0.0030
     22 C         138.4253  138.1885  162.3231 C.ar    1  UNL1        0.0111
     23 C         137.7747  139.4721  161.8996 C.ar    1  UNL1        0.0577
     24 CL        137.2551  139.6236  160.5007 Cl      1  UNL1       -0.0822
     25 C         137.6437  140.6040  162.8751 C.ar    1  UNL1        0.0111
     26 C         138.1633  140.4525  164.2741 C.ar    1  UNL1       -0.0030
@<TRIPOS>BOND
     1    13    14    1
     2    14    15    1
     3    15    16    1
     4    16    17    1
     5    17    18    1
     6    18    12    1
     7    12     1    1
     8     1     2   ar
     9     2     3   ar
    10     3    19    1
    11    19    20    1
    12    20    21   ar
    13    21    22   ar
    14    22    23   ar
    15    23    24    1
    16    23    25   ar
    17    25    26   ar
    18     3     4   ar
    19     4     5   ar
    20     5     6   ar
    21     6     7   ar
    22     7     8   ar
    23     8     9   ar
    24     9    10   ar
    25    10    11    2
    26    18    14    1
    27    10     1   ar
    28    26    20   ar
    29     9     4   ar
@<TRIPOS>MOLECULE
*****
 26 29 0 0 0
SMALL
GASTEIGER

@<TRIPOS>ATOM
      1 N         140.5067  140.2656  166.3143 N.ar    1  UNL1       -0.2142
      2 N         141.6736  141.0555  165.8002 N.ar    1  UNL1       -0.1692
      3 C         142.5029  141.8711  166.7473 C.ar    1  UNL1        0.1022
      4 C         142.1653  141.8967  168.2087 C.ar    1  UNL1        0.1191
      5 N         142.9945  142.7123  169.1558 N.ar    1  UNL1       -0.2393
      6 C         142.6569  142.7379  170.6171 C.ar    1  UNL1        0.1195
      7 C         141.4899  141.9480  171.1312 C.ar    1  UNL1        0.1197
      8 N         140.6607  141.1324  170.1840 N.ar    1  UNL1       -0.2358
      9 C         140.9983  141.1068  168.7228 C.ar    1  UNL1        0.1574
     10 C         140.1690  140.2912  167.7755 C.ar    1  UNL1        0.2956
     11 O         139.0021  139.5013  168.2896 O.2     1  UNL1       -0.2638
     12 C         139.6774  139.4500  165.3670 C.3     1  UNL1        0.1466
     13 C         138.7495  138.2156  162.4923 C.3     1  UNL1        0.0897
     14 N         138.3799  139.5650  163.0330 N.3     1  UNL1       -0.2709
     15 C         137.5188  140.5839  162.3472 C.3     1  UNL1        0.0722
     16 C         137.4132  141.7812  163.2448 C.3     1  UNL1        0.0188
     17 C         138.2089  141.5021  164.4852 C.3     1  UNL1        0.0194
     18 C         138.8064  140.1324  164.3543 C.3     1  UNL1        0.0822
     19 C         143.6698  142.6610  166.2333 C.3     1  UNL1        0.0754
     20 C         143.9901  142.6584  164.7679 C.ar    1  UNL1       -0.0160
     21 C         143.3331  143.6507  163.8548 C.ar    1  UNL1       -0.0030
     22 C         143.6534  143.6481  162.3894 C.ar    1  UNL1        0.0111
     23 C         144.6307  142.6532  161.8370 C.ar    1  UNL1        0.0577
     24 CL        144.9509  142.6506  160.3717 Cl      1  UNL1       -0.0822
     25 C         145.2877  141.6609  162.7501 C.ar    1  UNL1        0.0111
     26 C         144.9674  141.6635  164.2155 C.ar    1  UNL1       -0.0030
@<TRIPOS>BOND
     1    13    14    1
     2    14    15    1
     3    15    16    1
     4    16    17    1
     5    17    18    1
     6    18    12    1
     7    12     1    1
     8     1     2   ar
     9     2     3   ar
    10     3    19    1
    11    19    20    1
    12    20    21   ar
    13    21    22   ar
    14    22    23   ar
    15    23    24    1
    16    23    25   ar
    17    25    26   ar
    18     3     4   ar
    19     4     5   ar
    20     5     6   ar
    21     6     7   ar
    22     7     8   ar
    23     8     9   ar
    24     9    10   ar
    25    10    11    2
    26    18    14    1
    27    10     1   ar
    28    26    20   ar
    29     9     4   ar
@<TRIPOS>MOLECULE
*****
 26 29 0 0 0
SMALL
GASTEIGER

@<TRIPOS>ATOM
      1 N         139.4939  140.2272  166.9889 N.ar    1  UNL1       -0.2142
      2 N         140.4441  140.9817  166.1070 N.ar    1  UNL1       -0.1692
      3 C         141.5234  141.8262  166.7167 C.ar    1  UNL1        0.1022
      4 C         141.6526  141.9162  168.2084 C.ar    1  UNL1        0.1191
      5 N         142.7320  142.7607  168.8182 N.ar    1  UNL1       -0.2393
      6 C         142.8612  142.8506  170.3098 C.ar    1  UNL1        0.1195
      7 C         141.9110  142.0961  171.1918 C.ar    1  UNL1        0.1197
      8 N         140.8317  141.2516  170.5821 N.ar    1  UNL1       -0.2358
      9 C         140.7025  141.1616  169.0904 C.ar    1  UNL1        0.1574
     10 C         139.6231  140.3171  168.4806 C.ar    1  UNL1        0.2956
     11 O         138.6730  139.5625  169.3626 O.2     1  UNL1       -0.2638
     12 C         138.4145  139.3826  166.3791 C.3     1  UNL1        0.1466
     13 C         137.6954  141.2725  163.8178 C.3     1  UNL1        0.0897
     14 N         138.1702  139.8509  163.7589 N.3     1  UNL1       -0.2709
     15 C         138.3978  139.0484  162.5122 C.3     1  UNL1        0.0722
     16 C         138.8690  137.6836  162.9191 C.3     1  UNL1        0.0188
     17 C         138.9326  137.6427  164.4172 C.3     1  UNL1        0.0194
     18 C         138.5008  138.9822  164.9362 C.3     1  UNL1        0.0822
     19 C         142.4735  142.5808  165.8347 C.3     1  UNL1        0.0754
     20 C         141.9458  143.4249  164.7127 C.ar    1  UNL1       -0.0160
     21 C         142.8006  143.6929  163.5096 C.ar    1  UNL1       -0.0030
     22 C         142.2728  144.5370  162.3876 C.ar    1  UNL1        0.0111
     23 C         140.8902  145.1131  162.4687 C.ar    1  UNL1        0.0577
     24 CL        140.3624  145.9572  161.3467 Cl      1  UNL1       -0.0822
     25 C         140.0354  144.8451  163.6718 C.ar    1  UNL1        0.0111
     26 C         140.5632  144.0010  164.7938 C.ar    1  UNL1       -0.0030
@<TRIPOS>BOND
     1    13    14    1
     2    14    15    1
     3    15    16    1
     4    16    17    1
     5    17    18    1
     6    18    12    1
     7    12     1    1
     8     1     2   ar
     9     2     3   ar
    10     3    19    1
    11    19    20    1
    12    20    21   ar
    13    21    22   ar
    14    22    23   ar
    15    23    24    1
    16    23    25   ar
    17    25    26   ar
    18     3     4   ar
    19     4     5   ar
    20     5     6   ar
    21     6     7   ar
    22     7     8   ar
    23     8     9   ar
    24     9    10   ar
    25    10    11    2
    26    18    14    1
    27    10     1   ar
    28    26    20   ar
    29     9     4   ar
@<TRIPOS>MOLECULE
*****
 26 29 0 0 0
SMALL
GASTEIGER

@<TRIPOS>ATOM
      1 N         142.7753  139.3985  164.9888 N.ar    1  UNL1       -0.2142
      2 N         141.5772  140.2906  164.8515 N.ar    1  UNL1       -0.1692
      3 C         140.8268  140.7319  166.0730 C.ar    1  UNL1        0.1022
      4 C         141.2744  140.2811  167.4319 C.ar    1  UNL1        0.1191
      5 N         140.5240  140.7224  168.6533 N.ar    1  UNL1       -0.2393
      6 C         140.9717  140.2716  170.0121 C.ar    1  UNL1        0.1195
      7 C         142.1697  139.3795  170.1494 C.ar    1  UNL1        0.1197
      8 N         142.9201  138.9382  168.9280 N.ar    1  UNL1       -0.2358
      9 C         142.4725  139.3890  167.5692 C.ar    1  UNL1        0.1574
     10 C         143.2229  138.9477  166.3476 C.ar    1  UNL1        0.2956
     11 O         144.4209  138.0556  166.4849 O.2     1  UNL1       -0.2638
     12 C         143.5257  138.9571  163.7672 C.3     1  UNL1        0.1466
     13 C         145.6478  141.4316  163.9191 C.3     1  UNL1        0.0897
     14 N         144.7916  141.0755  162.7401 N.3     1  UNL1       -0.2709
     15 C         144.7605  141.7943  161.4239 C.3     1  UNL1        0.0722
     16 C         143.7658  141.1011  160.5406 C.3     1  UNL1        0.0188
     17 C         143.1822  139.9539  161.3109 C.3     1  UNL1        0.0194
     18 C         143.8161  139.9381  162.6703 C.3     1  UNL1        0.0822
     19 C         139.6288  141.6240  165.9357 C.3     1  UNL1        0.0754
     20 C         139.6510  142.7652  164.9624 C.ar    1  UNL1       -0.0160
     21 C         138.4753  143.0067  164.0628 C.ar    1  UNL1       -0.0030
     22 C         138.4975  144.1479  163.0896 C.ar    1  UNL1        0.0111
     23 C         139.6955  145.0475  163.0159 C.ar    1  UNL1        0.0577
     24 CL        139.7178  146.1887  162.0427 Cl      1  UNL1       -0.0822
     25 C         140.8713  144.8060  163.9155 C.ar    1  UNL1        0.0111
     26 C         140.8490  143.6648  164.8888 C.ar    1  UNL1       -0.0030
@<TRIPOS>BOND
     1    13    14    1
     2    14    15    1
     3    15    16    1
     4    16    17    1
     5    17    18    1
     6    18    12    1
     7    12     1    1
     8     1     2   ar
     9     2     3   ar
    10     3    19    1
    11    19    20    1
    12    20    21   ar
    13    21    22   ar
    14    22    23   ar
    15    23    24    1
    16    23    25   ar
    17    25    26   ar
    18     3     4   ar
    19     4     5   ar
    20     5     6   ar
    21     6     7   ar
    22     7     8   ar
    23     8     9   ar
    24     9    10   ar
    25    10    11    2
    26    18    14    1
    27    10     1   ar
    28    26    20   ar
    29     9     4   ar
@<TRIPOS>MOLECULE
*****
 26 29 0 0 0
SMALL
GASTEIGER

@<TRIPOS>ATOM
      1 N         140.6008  142.1605  166.4739 N.ar    1  UNL1       -0.2142
      2 N         141.3048  140.9537  165.9281 N.ar    1  UNL1       -0.1692
      3 C         142.0698  140.0509  166.8498 C.ar    1  UNL1        0.1022
      4 C         142.1308  140.3549  168.3175 C.ar    1  UNL1        0.1191
      5 N         142.8958  139.4521  169.2392 N.ar    1  UNL1       -0.2393
      6 C         142.9568  139.7561  170.7068 C.ar    1  UNL1        0.1195
      7 C         142.2528  140.9629  171.2526 C.ar    1  UNL1        0.1197
      8 N         141.4878  141.8657  170.3309 N.ar    1  UNL1       -0.2358
      9 C         141.4268  141.5617  168.8633 C.ar    1  UNL1        0.1574
     10 C         140.6617  142.4645  167.9415 C.ar    1  UNL1        0.2956
     11 O         139.9577  143.6713  168.4873 O.2     1  UNL1       -0.2638
     12 C         139.8357  143.0633  165.5521 C.3     1  UNL1        0.1466
     13 C         138.4797  144.6547  163.0465 C.3     1  UNL1        0.0897
     14 N         139.9418  144.6162  163.3790 N.3     1  UNL1       -0.2709
     15 C         141.0374  145.3024  162.6182 C.3     1  UNL1        0.0722
     16 C         142.3379  144.9950  163.2997 C.3     1  UNL1        0.0188
     17 C         142.0460  144.1188  164.4817 C.3     1  UNL1        0.0194
     18 C         140.5651  143.8847  164.5307 C.3     1  UNL1        0.0822
     19 C         142.7739  138.8441  166.3040 C.3     1  UNL1        0.0754
     20 C         142.7453  138.5613  164.8312 C.ar    1  UNL1       -0.0160
     21 C         141.5955  137.8045  164.2350 C.ar    1  UNL1       -0.0030
     22 C         141.5669  137.5218  162.7622 C.ar    1  UNL1        0.0111
     23 C         142.6880  137.9957  161.8855 C.ar    1  UNL1        0.0577
     24 CL        142.6594  137.7129  160.4127 Cl      1  UNL1       -0.0822
     25 C         143.8377  138.7524  162.4817 C.ar    1  UNL1        0.0111
     26 C         143.8664  139.0352  163.9546 C.ar    1  UNL1       -0.0030
@<TRIPOS>BOND
     1    13    14    1
     2    14    15    1
     3    15    16    1
     4    16    17    1
     5    17    18    1
     6    18    12    1
     7    12     1    1
     8     1     2   ar
     9     2     3   ar
    10     3    19    1
    11    19    20    1
    12    20    21   ar
    13    21    22   ar
    14    22    23   ar
    15    23    24    1
    16    23    25   ar
    17    25    26   ar
    18     3     4   ar
    19     4     5   ar
    20     5     6   ar
    21     6     7   ar
    22     7     8   ar
    23     8     9   ar
    24     9    10   ar
    25    10    11    2
    26    18    14    1
    27    10     1   ar
    28    26    20   ar
    29     9     4   ar
@<TRIPOS>MOLECULE
*****
 26 29 0 0 0
SMALL
GASTEIGER

@<TRIPOS>ATOM
      1 N         141.7949  139.6269  165.0258 N.ar    1  UNL1       -0.2142
      2 N         141.0085  140.9042  165.0149 N.ar    1  UNL1       -0.1692
      3 C         140.8792  141.7161  166.2695 C.ar    1  UNL1        0.1022
      4 C         141.5363  141.2506  167.5351 C.ar    1  UNL1        0.1191
      5 N         141.4070  142.0625  168.7897 N.ar    1  UNL1       -0.2393
      6 C         142.0641  141.5970  170.0552 C.ar    1  UNL1        0.1195
      7 C         142.8504  140.3197  170.0661 C.ar    1  UNL1        0.1197
      8 N         142.9797  139.5078  168.8115 N.ar    1  UNL1       -0.2358
      9 C         142.3227  139.9733  167.5460 C.ar    1  UNL1        0.1574
     10 C         142.4519  139.1614  166.2913 C.ar    1  UNL1        0.2956
     11 O         143.2383  137.8841  166.3022 O.2     1  UNL1       -0.2638
     12 C         141.9241  138.8150  163.7710 C.3     1  UNL1        0.1466
     13 C         139.0699  137.7158  164.9088 C.3     1  UNL1        0.0897
     14 N         139.3960  138.0000  163.4725 N.3     1  UNL1       -0.2709
     15 C         138.4674  137.8288  162.3070 C.3     1  UNL1        0.0722
     16 C         139.2054  138.2283  161.0637 C.3     1  UNL1        0.0188
     17 C         140.5902  138.6464  161.4608 C.3     1  UNL1        0.0194
     18 C         140.7080  138.5053  162.9495 C.3     1  UNL1        0.0822
     19 C         140.0929  142.9934  166.2586 C.3     1  UNL1        0.0754
     20 C         139.9965  143.8040  165.0003 C.ar    1  UNL1       -0.0160
     21 C         138.6639  144.0157  164.3447 C.ar    1  UNL1       -0.0030
     22 C         138.5675  144.8264  163.0864 C.ar    1  UNL1        0.0111
     23 C         139.8035  145.4254  162.4835 C.ar    1  UNL1        0.0577
     24 CL        139.7071  146.2360  161.2251 Cl      1  UNL1       -0.0822
     25 C         141.1360  145.2138  163.1390 C.ar    1  UNL1        0.0111
     26 C         141.2325  144.4031  164.3974 C.ar    1  UNL1       -0.0030
@<TRIPOS>BOND
     1    13    14    1
     2    14    15    1
     3    15    16    1
     4    16    17    1
     5    17    18    1
     6    18    12    1
     7    12     1    1
     8     1     2   ar
     9     2     3   ar
    10     3    19    1
    11    19    20    1
    12    20    21   ar
    13    21    22   ar
    14    22    23   ar
    15    23    24    1
    16    23    25   ar
    17    25    26   ar
    18     3     4   ar
    19     4     5   ar
    20     5     6   ar
    21     6     7   ar
    22     7     8   ar
    23     8     9   ar
    24     9    10   ar
    25    10    11    2
    26    18    14    1
    27    10     1   ar
    28    26    20   ar
    29     9     4   ar
@<TRIPOS>MOLECULE
*****
 26 29 0 0 0
SMALL
GASTEIGER

@<TRIPOS>ATOM
      1 N         138.8317  139.4985  161.6384 N.ar    1  UNL1       -0.2142
      2 N         138.6726  139.0825  163.0708 N.ar    1  UNL1       -0.1692
      3 C         138.3485  140.1067  164.1176 C.ar    1  UNL1        0.1022
      4 C         138.1835  141.5470  163.7321 C.ar    1  UNL1        0.1191
      5 N         137.8594  142.5712  164.7790 N.ar    1  UNL1       -0.2393
      6 C         137.6945  144.0113  164.3935 C.ar    1  UNL1        0.1195
      7 C         137.8536  144.4273  162.9611 C.ar    1  UNL1        0.1197
      8 N         138.1777  143.4031  161.9143 N.ar    1  UNL1       -0.2358
      9 C         138.3426  141.9629  162.2998 C.ar    1  UNL1        0.1574
     10 C         138.6668  140.9386  161.2529 C.ar    1  UNL1        0.2956
     11 O         138.8259  141.3546  159.8206 O.2     1  UNL1       -0.2638
     12 C         139.1558  138.4742  160.5915 C.3     1  UNL1        0.1466
     13 C         141.8469  137.7355  162.2831 C.3     1  UNL1        0.0897
     14 N         141.7840  138.0417  160.8161 N.3     1  UNL1       -0.2709
     15 C         142.9470  138.0621  159.8690 C.3     1  UNL1        0.0722
     16 C         142.4288  138.4143  158.5061 C.3     1  UNL1        0.0188
     17 C         140.9456  138.6115  158.6109 C.3     1  UNL1        0.0194
     18 C         140.5470  138.3812  160.0385 C.3     1  UNL1        0.0822
     19 C         138.1893  139.6907  165.5500 C.3     1  UNL1        0.0754
     20 C         139.3544  139.7791  166.4905 C.ar    1  UNL1       -0.0160
     21 C         139.1189  139.9279  167.9645 C.ar    1  UNL1       -0.0030
     22 C         140.2840  140.0163  168.9050 C.ar    1  UNL1        0.0111
     23 C         141.6847  139.9559  168.3717 C.ar    1  UNL1        0.0577
     24 CL        142.8498  140.0443  169.3122 Cl      1  UNL1       -0.0822
     25 C         141.9202  139.8072  166.8978 C.ar    1  UNL1        0.0111
     26 C         140.7551  139.7187  165.9572 C.ar    1  UNL1       -0.0030
@<TRIPOS>BOND
     1    13    14    1
     2    14    15    1
     3    15    16    1
     4    16    17    1
     5    17    18    1
     6    18    12    1
     7    12     1    1
     8     1     2   ar
     9     2     3   ar
    10     3    19    1
    11    19    20    1
    12    20    21   ar
    13    21    22   ar
    14    22    23   ar
    15    23    24    1
    16    23    25   ar
    17    25    26   ar
    18     3     4   ar
    19     4     5   ar
    20     5     6   ar
    21     6     7   ar
    22     7     8   ar
    23     8     9   ar
    24     9    10   ar
    25    10    11    2
    26    18    14    1
    27    10     1   ar
    28    26    20   ar
    29     9     4   ar
@<TRIPOS>MOLECULE
*****
 26 29 0 0 0
SMALL
GASTEIGER

@<TRIPOS>ATOM
      1 N         140.8017  142.3321  166.4734 N.ar    1  UNL1       -0.2142
      2 N         141.5545  141.1569  165.9236 N.ar    1  UNL1       -0.1692
      3 C         142.2603  140.2163  166.8547 C.ar    1  UNL1        0.1022
      4 C         142.2134  140.4508  168.3355 C.ar    1  UNL1        0.1191
      5 N         142.9193  139.5101  169.2666 N.ar    1  UNL1       -0.2393
      6 C         142.8724  139.7447  170.7473 C.ar    1  UNL1        0.1195
      7 C         142.1196  140.9199  171.2971 C.ar    1  UNL1        0.1197
      8 N         141.4137  141.8605  170.3660 N.ar    1  UNL1       -0.2358
      9 C         141.4606  141.6260  168.8853 C.ar    1  UNL1        0.1574
     10 C         140.7548  142.5667  167.9541 C.ar    1  UNL1        0.2956
     11 O         140.0020  143.7419  168.5039 O.2     1  UNL1       -0.2638
     12 C         140.0958  143.2728  165.5422 C.3     1  UNL1        0.1466
     13 C         141.1499  142.5047  162.5509 C.3     1  UNL1        0.0897
     14 N         139.7405  142.3782  163.0486 N.3     1  UNL1       -0.2709
     15 C         138.5683  141.8765  162.2586 C.3     1  UNL1        0.0722
     16 C         137.3592  141.9195  163.1454 C.3     1  UNL1        0.0188
     17 C         137.7843  142.4478  164.4834 C.3     1  UNL1        0.0194
     18 C         139.2560  142.7313  164.4236 C.3     1  UNL1        0.0822
     19 C         143.0131  139.0411  166.3049 C.3     1  UNL1        0.0754
     20 C         142.9200  138.7068  164.8456 C.ar    1  UNL1       -0.0160
     21 C         143.9789  139.1862  163.8973 C.ar    1  UNL1       -0.0030
     22 C         143.8858  138.8519  162.4381 C.ar    1  UNL1        0.0111
     23 C         142.7339  138.0383  161.9270 C.ar    1  UNL1        0.0577
     24 CL        142.6408  137.7040  160.4677 Cl      1  UNL1       -0.0822
     25 C         141.6751  137.5589  162.8752 C.ar    1  UNL1        0.0111
     26 C         141.7682  137.8932  164.3346 C.ar    1  UNL1       -0.0030
@<TRIPOS>BOND
     1    13    14    1
     2    14    15    1
     3    15    16    1
     4    16    17    1
     5    17    18    1
     6    18    12    1
     7    12     1    1
     8     1     2   ar
     9     2     3   ar
    10     3    19    1
    11    19    20    1
    12    20    21   ar
    13    21    22   ar
    14    22    23   ar
    15    23    24    1
    16    23    25   ar
    17    25    26   ar
    18     3     4   ar
    19     4     5   ar
    20     5     6   ar
    21     6     7   ar
    22     7     8   ar
    23     8     9   ar
    24     9    10   ar
    25    10    11    2
    26    18    14    1
    27    10     1   ar
    28    26    20   ar
    29     9     4   ar
