@<TRIPOS>MOLECULE
*****
 35 38 0 0 0
SMALL
GASTEIGER

@<TRIPOS>ATOM
      1 N         138.8643  140.1486  165.8306 N.3     1  UNL1       -0.2691
      2 C         140.0787  140.7622  166.4621 C.3     1  UNL1        0.0724
      3 C         140.5281  142.1321  166.0484 C.3     1  UNL1        0.0188
      4 C         139.7631  142.8886  165.0030 C.3     1  UNL1        0.0188
      5 C         138.5487  142.2750  164.3715 C.3     1  UNL1        0.0188
      6 C         138.0993  140.9050  164.7853 C.3     1  UNL1        0.0724
      7 C         138.4149  138.7786  166.2444 C.3     1  UNL1        0.0987
      8 C         137.7270  138.5813  167.5627 C.2     1  UNL1        0.0652
      9 O         138.2033  139.3238  168.7758 O.co2   1  UNL1       -0.5478
     10 O         136.5626  137.6414  167.6678 O.co2   1  UNL1       -0.5478
     11 C         138.6535  137.6060  165.3400 C.3     1  UNL1        0.0480
     12 C         141.4578  137.9960  161.8424 C.ar    1  UNL1        0.0684
     13 C         142.0063  137.8316  163.2288 C.ar    1  UNL1        0.0100
     14 C         141.0715  137.7016  164.3947 C.ar    1  UNL1       -0.0035
     15 C         139.5883  137.7360  164.1742 C.ar    1  UNL1       -0.0204
     16 C         139.0398  137.9003  162.7878 C.ar    1  UNL1       -0.0035
     17 C         139.9745  138.0303  161.6219 C.ar    1  UNL1        0.0100
     18 N         143.3274  138.2560  159.5106 N.1     1  UNL1       -0.1908
     19 C         142.3926  138.1260  160.6765 C.1     1  UNL1        0.1004
     20 C         140.2125  144.2585  164.5892 C.3     1  UNL1        0.0721
     21 N         140.5633  144.5319  163.1567 N.3     1  UNL1       -0.2724
     22 C         139.7940  145.5580  162.3788 C.3     1  UNL1        0.0758
     23 C         140.1448  145.8315  160.9463 C.3     1  UNL1        0.0609
     24 C         141.2650  145.0788  160.2917 C.3     1  UNL1        0.1687
     25 C         142.0344  144.0527  161.0695 C.3     1  UNL1        0.0609
     26 C         141.6835  143.7793  162.5021 C.3     1  UNL1        0.0758
     27 O         141.6159  145.3522  158.8591 O.3     1  UNL1       -0.4790
     28 C         140.5722  145.2107  157.7912 C.ar    1  UNL1        0.1393
     29 C         139.9016  143.8875  157.5684 C.ar    1  UNL1        0.0378
     30 C         138.8579  143.7460  156.5005 C.ar    1  UNL1        0.0154
     31 C         138.4847  144.9276  155.6552 C.ar    1  UNL1        0.0684
     32 CL        137.4409  144.7861  154.5872 Cl      1  UNL1       -0.0814
     33 C         139.1552  146.2508  155.8779 C.ar    1  UNL1        0.0712
     34 CL        138.7821  147.4324  155.0326 Cl      1  UNL1       -0.0813
     35 C         140.1990  146.3923  156.9459 C.ar    1  UNL1        0.0491
@<TRIPOS>UNITY_ATOM_ATTR
9 1
charge -1
@<TRIPOS>BOND
     1    18    19    3
     2    19    12    1
     3    12    13   ar
     4    13    14   ar
     5    14    15   ar
     6    15    11    1
     7     7    11    1
     8     7     8    1
     9     8     9   ar
    10     8    10   ar
    11     7     1    1
    12     1     2    1
    13     2     3    1
    14     3     4    1
    15     4    20    1
    16    20    21    1
    17    21    22    1
    18    22    23    1
    19    23    24    1
    20    24    27    1
    21    27    28    1
    22    28    29   ar
    23    29    30   ar
    24    30    31   ar
    25    31    32    1
    26    31    33   ar
    27    33    34    1
    28    33    35   ar
    29    24    25    1
    30    25    26    1
    31     4     5    1
    32     5     6    1
    33    15    16   ar
    34    16    17   ar
    35    17    12   ar
    36     6     1    1
    37    26    21    1
    38    35    28   ar
@<TRIPOS>MOLECULE
*****
 35 38 0 0 0
SMALL
GASTEIGER

@<TRIPOS>ATOM
      1 N         140.2777  140.1042  167.1317 N.3     1  UNL1       -0.2691
      2 C         141.5837  139.5673  166.6255 C.3     1  UNL1        0.0724
      3 C         141.6016  138.5801  165.4964 C.3     1  UNL1        0.0188
      4 C         140.3136  138.1296  164.8734 C.3     1  UNL1        0.0188
      5 C         139.0076  138.6664  165.3796 C.3     1  UNL1        0.0188
      6 C         138.9897  139.6537  166.5087 C.3     1  UNL1        0.0724
      7 C         140.2598  141.0915  168.2608 C.3     1  UNL1        0.0987
      8 C         139.8243  140.6580  169.6292 C.2     1  UNL1        0.0652
      9 O         138.7330  141.4024  170.3398 O.co2   1  UNL1       -0.5478
     10 O         140.4802  139.4802  170.2870 O.co2   1  UNL1       -0.5478
     11 C         140.6773  142.5122  168.0216 C.3     1  UNL1        0.0480
     12 C         139.8482  144.4630  164.0521 C.ar    1  UNL1        0.0684
     13 C         141.0701  143.6111  164.2284 C.ar    1  UNL1        0.0100
     14 C         141.3464  142.9608  165.5516 C.ar    1  UNL1       -0.0035
     15 C         140.4009  143.1624  166.6984 C.ar    1  UNL1       -0.0204
     16 C         139.1790  144.0144  166.5221 C.ar    1  UNL1       -0.0035
     17 C         138.9026  144.6647  165.1990 C.ar    1  UNL1        0.0100
     18 N         139.2954  145.7636  161.4058 N.1     1  UNL1       -0.1908
     19 C         139.5718  145.1133  162.7290 C.1     1  UNL1        0.1004
     20 C         140.3315  137.1423  163.7443 C.3     1  UNL1        0.0721
     21 N         140.4853  137.6216  162.3313 N.3     1  UNL1       -0.2724
     22 C         141.8520  137.7440  161.7254 C.3     1  UNL1        0.0758
     23 C         142.0058  138.2233  160.3123 C.3     1  UNL1        0.0609
     24 C         140.7929  138.5802  159.5052 C.3     1  UNL1        0.1687
     25 C         139.4262  138.4578  160.1111 C.3     1  UNL1        0.0609
     26 C         139.2724  137.9785  161.5242 C.3     1  UNL1        0.0758
     27 O         140.9467  139.0595  158.0922 O.3     1  UNL1       -0.4790
     28 C         141.2985  138.0881  157.0048 C.ar    1  UNL1        0.1393
     29 C         140.2115  137.4020  156.2315 C.ar    1  UNL1        0.0378
     30 C         140.5633  136.4305  155.1441 C.ar    1  UNL1        0.0154
     31 C         142.0020  136.1451  154.8299 C.ar    1  UNL1        0.0684
     32 CL        142.3537  135.1736  153.7424 Cl      1  UNL1       -0.0814
     33 C         143.0889  136.8312  155.6031 C.ar    1  UNL1        0.0712
     34 CL        144.5276  136.5458  155.2889 Cl      1  UNL1       -0.0813
     35 C         142.7371  137.8027  156.6906 C.ar    1  UNL1        0.0491
@<TRIPOS>UNITY_ATOM_ATTR
9 1
charge -1
@<TRIPOS>BOND
     1    18    19    3
     2    19    12    1
     3    12    13   ar
     4    13    14   ar
     5    14    15   ar
     6    15    11    1
     7     7    11    1
     8     7     8    1
     9     8     9   ar
    10     8    10   ar
    11     7     1    1
    12     1     2    1
    13     2     3    1
    14     3     4    1
    15     4    20    1
    16    20    21    1
    17    21    22    1
    18    22    23    1
    19    23    24    1
    20    24    27    1
    21    27    28    1
    22    28    29   ar
    23    29    30   ar
    24    30    31   ar
    25    31    32    1
    26    31    33   ar
    27    33    34    1
    28    33    35   ar
    29    24    25    1
    30    25    26    1
    31     4     5    1
    32     5     6    1
    33    15    16   ar
    34    16    17   ar
    35    17    12   ar
    36     6     1    1
    37    26    21    1
    38    35    28   ar
@<TRIPOS>MOLECULE
*****
 35 38 0 0 0
SMALL
GASTEIGER

@<TRIPOS>ATOM
      1 N         142.1128  140.0607  166.8938 N.3     1  UNL1       -0.2691
      2 C         142.5459  141.4278  166.4542 C.3     1  UNL1        0.0724
      3 C         143.5645  141.5773  165.3633 C.3     1  UNL1        0.0188
      4 C         144.1500  140.3595  164.7119 C.3     1  UNL1        0.0188
      5 C         143.7169  138.9923  165.1515 C.3     1  UNL1        0.0188
      6 C         142.6983  138.8429  166.2425 C.3     1  UNL1        0.0724
      7 C         141.0942  139.9113  167.9848 C.3     1  UNL1        0.0987
      8 C         141.5382  139.6880  169.4000 C.2     1  UNL1        0.0652
      9 O         140.5195  139.5085  170.4863 O.co2   1  UNL1       -0.5478
     10 O         143.0011  139.6441  169.7290 O.co2   1  UNL1       -0.5478
     11 C         139.6315  139.9852  167.6604 C.3     1  UNL1        0.0480
     12 C         138.2641  139.7943  163.3775 C.ar    1  UNL1        0.0684
     13 C         138.3440  141.1166  164.0811 C.ar    1  UNL1        0.0100
     14 C         138.7999  141.1803  165.5087 C.ar    1  UNL1       -0.0035
     15 C         139.1757  139.9216  166.2328 C.ar    1  UNL1       -0.0204
     16 C         139.0957  138.5993  165.5293 C.ar    1  UNL1       -0.0035
     17 C         138.6399  138.5356  164.1016 C.ar    1  UNL1        0.0100
     18 N         137.3524  139.6671  160.5222 N.1     1  UNL1       -0.1908
     19 C         137.8082  139.7307  161.9499 C.1     1  UNL1        0.1004
     20 C         145.1686  140.5089  163.6210 C.3     1  UNL1        0.0721
     21 N         144.7351  140.8951  162.2379 N.3     1  UNL1       -0.2724
     22 C         144.2070  139.8516  161.2987 C.3     1  UNL1        0.0758
     23 C         143.7735  140.2377  159.9156 C.3     1  UNL1        0.0609
     24 C         143.8682  141.6674  159.4717 C.3     1  UNL1        0.1687
     25 C         144.3963  142.7109  160.4109 C.3     1  UNL1        0.0609
     26 C         144.8298  142.3247  161.7940 C.3     1  UNL1        0.0758
     27 O         143.4347  142.0535  158.0886 O.3     1  UNL1       -0.4790
     28 C         144.3617  141.8482  156.9274 C.ar    1  UNL1        0.1393
     29 C         143.8225  141.3653  155.6135 C.ar    1  UNL1        0.0378
     30 C         144.7495  141.1601  154.4523 C.ar    1  UNL1        0.0154
     31 C         146.2157  141.4377  154.6048 C.ar    1  UNL1        0.0684
     32 CL        147.1427  141.2324  153.4435 Cl      1  UNL1       -0.0814
     33 C         146.7549  141.9206  155.9186 C.ar    1  UNL1        0.0712
     34 CL        148.2210  142.1982  156.0712 Cl      1  UNL1       -0.0813
     35 C         145.8279  142.1259  157.0799 C.ar    1  UNL1        0.0491
@<TRIPOS>UNITY_ATOM_ATTR
9 1
charge -1
@<TRIPOS>BOND
     1    18    19    3
     2    19    12    1
     3    12    13   ar
     4    13    14   ar
     5    14    15   ar
     6    15    11    1
     7     7    11    1
     8     7     8    1
     9     8     9   ar
    10     8    10   ar
    11     7     1    1
    12     1     2    1
    13     2     3    1
    14     3     4    1
    15     4    20    1
    16    20    21    1
    17    21    22    1
    18    22    23    1
    19    23    24    1
    20    24    27    1
    21    27    28    1
    22    28    29   ar
    23    29    30   ar
    24    30    31   ar
    25    31    32    1
    26    31    33   ar
    27    33    34    1
    28    33    35   ar
    29    24    25    1
    30    25    26    1
    31     4     5    1
    32     5     6    1
    33    15    16   ar
    34    16    17   ar
    35    17    12   ar
    36     6     1    1
    37    26    21    1
    38    35    28   ar
@<TRIPOS>MOLECULE
*****
 35 38 0 0 0
SMALL
GASTEIGER

@<TRIPOS>ATOM
      1 N         140.6870  140.5950  167.3279 N.3     1  UNL1       -0.2691
      2 C         141.8287  139.7487  166.8479 C.3     1  UNL1        0.0724
      3 C         142.9568  140.3751  166.0831 C.3     1  UNL1        0.0188
      4 C         142.9433  141.8479  165.7984 C.3     1  UNL1        0.0188
      5 C         141.8017  142.6941  166.2785 C.3     1  UNL1        0.0188
      6 C         140.6735  142.0676  167.0433 C.3     1  UNL1        0.0724
      7 C         139.5589  139.9685  168.0927 C.3     1  UNL1        0.0987
      8 C         139.5309  140.0511  169.5902 C.2     1  UNL1        0.0652
      9 O         140.6326  139.4297  170.3963 O.co2   1  UNL1       -0.5478
     10 O         138.4011  140.7553  170.2815 O.co2   1  UNL1       -0.5478
     11 C         138.4587  139.2594  167.3600 C.3     1  UNL1        0.0480
     12 C         138.5333  139.0269  162.8667 C.ar    1  UNL1        0.0684
     13 C         138.9436  137.8394  163.6860 C.ar    1  UNL1        0.0100
     14 C         138.9187  137.9169  165.1838 C.ar    1  UNL1       -0.0035
     15 C         138.4836  139.1819  165.8622 C.ar    1  UNL1       -0.0204
     16 C         138.0733  140.3694  165.0429 C.ar    1  UNL1       -0.0035
     17 C         138.0982  140.2920  163.5451 C.ar    1  UNL1        0.0100
     18 N         138.5830  138.8720  159.8711 N.1     1  UNL1       -0.1908
     19 C         138.5582  138.9495  161.3689 C.1     1  UNL1        0.1004
     20 C         144.0715  142.4743  165.0337 C.3     1  UNL1        0.0721
     21 N         143.9386  142.7079  163.5580 N.3     1  UNL1       -0.2724
     22 C         144.9838  142.1836  162.6185 C.3     1  UNL1        0.0758
     23 C         144.8510  142.4173  161.1428 C.3     1  UNL1        0.0609
     24 C         143.6729  143.1752  160.6065 C.3     1  UNL1        0.1687
     25 C         142.6277  143.6995  161.5460 C.3     1  UNL1        0.0609
     26 C         142.7605  143.4659  163.0217 C.3     1  UNL1        0.0758
     27 O         143.5400  143.4089  159.1308 O.3     1  UNL1       -0.4790
     28 C         143.9355  142.3336  158.1626 C.ar    1  UNL1        0.1393
     29 C         143.0177  141.1735  157.9141 C.ar    1  UNL1        0.0378
     30 C         143.4132  140.0982  156.9460 C.ar    1  UNL1        0.0154
     31 C         144.7265  140.1831  156.2262 C.ar    1  UNL1        0.0684
     32 CL        145.1219  139.1078  155.2580 Cl      1  UNL1       -0.0814
     33 C         145.6443  141.3432  156.4746 C.ar    1  UNL1        0.0712
     34 CL        146.9576  141.4281  155.7549 Cl      1  UNL1       -0.0813
     35 C         145.2488  142.4185  157.4429 C.ar    1  UNL1        0.0491
@<TRIPOS>UNITY_ATOM_ATTR
9 1
charge -1
@<TRIPOS>BOND
     1    18    19    3
     2    19    12    1
     3    12    13   ar
     4    13    14   ar
     5    14    15   ar
     6    15    11    1
     7     7    11    1
     8     7     8    1
     9     8     9   ar
    10     8    10   ar
    11     7     1    1
    12     1     2    1
    13     2     3    1
    14     3     4    1
    15     4    20    1
    16    20    21    1
    17    21    22    1
    18    22    23    1
    19    23    24    1
    20    24    27    1
    21    27    28    1
    22    28    29   ar
    23    29    30   ar
    24    30    31   ar
    25    31    32    1
    26    31    33   ar
    27    33    34    1
    28    33    35   ar
    29    24    25    1
    30    25    26    1
    31     4     5    1
    32     5     6    1
    33    15    16   ar
    34    16    17   ar
    35    17    12   ar
    36     6     1    1
    37    26    21    1
    38    35    28   ar
@<TRIPOS>MOLECULE
*****
 35 38 0 0 0
SMALL
GASTEIGER

@<TRIPOS>ATOM
      1 N         140.3079  140.7048  167.7409 N.3     1  UNL1       -0.2691
      2 C         141.6291  140.0005  167.6480 C.3     1  UNL1        0.0724
      3 C         142.8041  140.6901  167.0206 C.3     1  UNL1        0.0188
      4 C         142.6580  142.0841  166.4860 C.3     1  UNL1        0.0188
      5 C         141.3369  142.7883  166.5789 C.3     1  UNL1        0.0188
      6 C         140.1618  142.0986  167.2064 C.3     1  UNL1        0.0724
      7 C         139.1329  140.0151  168.3684 C.3     1  UNL1        0.0987
      8 C         138.8630  140.1779  169.8349 C.2     1  UNL1        0.0652
      9 O         137.6467  139.5497  170.4480 O.co2   1  UNL1       -0.5478
     10 O         139.8096  140.9690  170.6884 O.co2   1  UNL1       -0.5478
     11 C         138.2277  139.1627  167.5293 C.3     1  UNL1        0.0480
     12 C         138.9869  138.7436  163.1137 C.ar    1  UNL1        0.0684
     13 C         138.3351  139.9843  163.6482 C.ar    1  UNL1        0.0100
     14 C         138.0820  140.1240  165.1201 C.ar    1  UNL1       -0.0035
     15 C         138.4808  139.0230  166.0575 C.ar    1  UNL1       -0.0204
     16 C         139.1326  137.7823  165.5230 C.ar    1  UNL1       -0.0035
     17 C         139.3856  137.6426  164.0511 C.ar    1  UNL1        0.0100
     18 N         139.4930  138.4642  160.1699 N.1     1  UNL1       -0.1908
     19 C         139.2399  138.6039  161.6418 C.1     1  UNL1        0.1004
     20 C         143.8331  142.7737  165.8586 C.3     1  UNL1        0.0721
     21 N         144.0460  142.6933  164.3760 N.3     1  UNL1       -0.2724
     22 C         145.0104  141.6936  163.8099 C.3     1  UNL1        0.0758
     23 C         145.2233  141.6132  162.3272 C.3     1  UNL1        0.0609
     24 C         144.4718  142.5325  161.4107 C.3     1  UNL1        0.1687
     25 C         143.5074  143.5322  161.9768 C.3     1  UNL1        0.0609
     26 C         143.2945  143.6126  163.4594 C.3     1  UNL1        0.0758
     27 O         144.6847  142.4521  159.9281 O.3     1  UNL1       -0.4790
     28 C         143.7706  141.6150  159.0834 C.ar    1  UNL1        0.1393
     29 C         142.8834  142.2676  158.0649 C.ar    1  UNL1        0.0378
     30 C         141.9693  141.4305  157.2202 C.ar    1  UNL1        0.0154
     31 C         141.9422  139.9408  157.3939 C.ar    1  UNL1        0.0684
     32 CL        141.0280  139.1037  156.5492 Cl      1  UNL1       -0.0814
     33 C         142.8293  139.2883  158.4123 C.ar    1  UNL1        0.0712
     34 CL        142.8022  137.7986  158.5861 Cl      1  UNL1       -0.0813
     35 C         143.7435  140.1254  159.2571 C.ar    1  UNL1        0.0491
@<TRIPOS>UNITY_ATOM_ATTR
9 1
charge -1
@<TRIPOS>BOND
     1    18    19    3
     2    19    12    1
     3    12    13   ar
     4    13    14   ar
     5    14    15   ar
     6    15    11    1
     7     7    11    1
     8     7     8    1
     9     8     9   ar
    10     8    10   ar
    11     7     1    1
    12     1     2    1
    13     2     3    1
    14     3     4    1
    15     4    20    1
    16    20    21    1
    17    21    22    1
    18    22    23    1
    19    23    24    1
    20    24    27    1
    21    27    28    1
    22    28    29   ar
    23    29    30   ar
    24    30    31   ar
    25    31    32    1
    26    31    33   ar
    27    33    34    1
    28    33    35   ar
    29    24    25    1
    30    25    26    1
    31     4     5    1
    32     5     6    1
    33    15    16   ar
    34    16    17   ar
    35    17    12   ar
    36     6     1    1
    37    26    21    1
    38    35    28   ar
@<TRIPOS>MOLECULE
*****
 35 38 0 0 0
SMALL
GASTEIGER

@<TRIPOS>ATOM
      1 N         140.6549  139.7678  166.7536 N.3     1  UNL1       -0.2691
      2 C         141.5922  139.1377  165.7664 C.3     1  UNL1        0.0724
      3 C         141.0471  138.4175  164.5689 C.3     1  UNL1        0.0188
      4 C         139.5646  138.3273  164.3585 C.3     1  UNL1        0.0188
      5 C         138.6273  138.9573  165.3457 C.3     1  UNL1        0.0188
      6 C         139.1725  139.6776  166.5432 C.3     1  UNL1        0.0724
      7 C         141.2001  140.4881  167.9512 C.3     1  UNL1        0.0987
      8 C         141.5354  139.7238  169.1976 C.2     1  UNL1        0.0652
      9 O         142.9415  139.2602  169.4376 O.co2   1  UNL1       -0.5478
     10 O         140.4644  139.4233  170.2040 O.co2   1  UNL1       -0.5478
     11 C         141.4099  141.9725  167.9023 C.3     1  UNL1        0.0480
     12 C         140.1392  144.3061  164.2706 C.ar    1  UNL1        0.0684
     13 C         141.4760  143.6263  164.2952 C.ar    1  UNL1        0.0100
     14 C         141.8996  142.8484  165.5058 C.ar    1  UNL1       -0.0035
     15 C         140.9864  142.7504  166.6917 C.ar    1  UNL1       -0.0204
     16 C         139.6495  143.4302  166.6670 C.ar    1  UNL1       -0.0035
     17 C         139.2260  144.2081  165.4564 C.ar    1  UNL1        0.0100
     18 N         139.2920  145.8619  161.8494 N.1     1  UNL1       -0.1908
     19 C         139.7156  145.0840  163.0600 C.1     1  UNL1        0.1004
     20 C         139.0195  137.6070  163.1610 C.3     1  UNL1        0.0721
     21 N         138.8493  138.3355  161.8609 N.3     1  UNL1       -0.2724
     22 C         139.8517  138.1502  160.7605 C.3     1  UNL1        0.0758
     23 C         139.6814  138.8787  159.4604 C.3     1  UNL1        0.0609
     24 C         138.5089  139.7925  159.2607 C.3     1  UNL1        0.1687
     25 C         137.5065  139.9779  160.3610 C.3     1  UNL1        0.0609
     26 C         137.6767  139.2494  161.6612 C.3     1  UNL1        0.0758
     27 O         138.3386  140.5210  157.9605 O.3     1  UNL1       -0.4790
     28 C         138.9354  141.8855  157.7817 C.ar    1  UNL1        0.1393
     29 C         138.5682  142.7139  156.5862 C.ar    1  UNL1        0.0378
     30 C         139.1649  144.0784  156.4073 C.ar    1  UNL1        0.0154
     31 C         140.1288  144.6145  157.4238 C.ar    1  UNL1        0.0684
     32 CL        140.7256  145.9791  157.2449 Cl      1  UNL1       -0.0814
     33 C         140.4961  143.7862  158.6193 C.ar    1  UNL1        0.0712
     34 CL        141.4600  144.3224  159.6358 Cl      1  UNL1       -0.0813
     35 C         139.8993  142.4217  158.7982 C.ar    1  UNL1        0.0491
@<TRIPOS>UNITY_ATOM_ATTR
9 1
charge -1
@<TRIPOS>BOND
     1    18    19    3
     2    19    12    1
     3    12    13   ar
     4    13    14   ar
     5    14    15   ar
     6    15    11    1
     7     7    11    1
     8     7     8    1
     9     8     9   ar
    10     8    10   ar
    11     7     1    1
    12     1     2    1
    13     2     3    1
    14     3     4    1
    15     4    20    1
    16    20    21    1
    17    21    22    1
    18    22    23    1
    19    23    24    1
    20    24    27    1
    21    27    28    1
    22    28    29   ar
    23    29    30   ar
    24    30    31   ar
    25    31    32    1
    26    31    33   ar
    27    33    34    1
    28    33    35   ar
    29    24    25    1
    30    25    26    1
    31     4     5    1
    32     5     6    1
    33    15    16   ar
    34    16    17   ar
    35    17    12   ar
    36     6     1    1
    37    26    21    1
    38    35    28   ar
@<TRIPOS>MOLECULE
*****
 35 38 0 0 0
SMALL
GASTEIGER

@<TRIPOS>ATOM
      1 N         140.0027  139.7364  166.9912 N.3     1  UNL1       -0.2691
      2 C         141.2654  139.1650  166.4173 C.3     1  UNL1        0.0724
      3 C         141.2117  138.3228  165.1773 C.3     1  UNL1        0.0188
      4 C         139.8953  138.0518  164.5111 C.3     1  UNL1        0.0188
      5 C         138.6327  138.6231  165.0849 C.3     1  UNL1        0.0188
      6 C         138.6864  139.4654  166.3250 C.3     1  UNL1        0.0724
      7 C         140.0565  140.5787  168.2313 C.3     1  UNL1        0.0987
      8 C         139.6487  139.9960  169.5519 C.2     1  UNL1        0.0652
      9 O         138.2017  139.9721  169.9464 O.co2   1  UNL1       -0.5478
     10 O         140.6879  139.4372  170.4781 O.co2   1  UNL1       -0.5478
     11 C         140.5180  142.0036  168.1506 C.3     1  UNL1        0.0480
     12 C         142.8921  143.4019  164.5928 C.ar    1  UNL1        0.0684
     13 C         141.3984  143.5386  164.5984 C.ar    1  UNL1        0.0100
     14 C         140.6070  143.0725  165.7843 C.ar    1  UNL1       -0.0035
     15 C         141.3094  142.4697  166.9647 C.ar    1  UNL1       -0.0204
     16 C         142.8031  142.3329  166.9591 C.ar    1  UNL1       -0.0035
     17 C         143.5944  142.7990  165.7731 C.ar    1  UNL1        0.0100
     18 N         144.4749  144.3340  162.2209 N.1     1  UNL1       -0.1908
     19 C         143.6835  143.8680  163.4068 C.1     1  UNL1        0.1004
     20 C         139.8417  137.2095  163.2711 C.3     1  UNL1        0.0721
     21 N         140.1992  137.8070  161.9425 N.3     1  UNL1       -0.2724
     22 C         139.1186  138.3021  161.0276 C.3     1  UNL1        0.0758
     23 C         139.4762  138.8996  159.6990 C.3     1  UNL1        0.0609
     24 C         140.9143  139.0020  159.2853 C.3     1  UNL1        0.1687
     25 C         141.9949  138.5070  160.2003 C.3     1  UNL1        0.0609
     26 C         141.6374  137.9095  161.5289 C.3     1  UNL1        0.0758
     27 O         141.2719  139.5995  157.9567 O.3     1  UNL1       -0.4790
     28 C         142.5621  140.3468  157.7933 C.ar    1  UNL1        0.1393
     29 C         142.8455  141.5491  158.6444 C.ar    1  UNL1        0.0378
     30 C         144.1357  142.2964  158.4809 C.ar    1  UNL1        0.0154
     31 C         145.1426  141.8415  157.4664 C.ar    1  UNL1        0.0684
     32 CL        146.4329  142.5889  157.3030 Cl      1  UNL1       -0.0814
     33 C         144.8593  140.6393  156.6154 C.ar    1  UNL1        0.0712
     34 CL        145.8662  140.1844  155.6009 Cl      1  UNL1       -0.0813
     35 C         143.5690  139.8919  156.7788 C.ar    1  UNL1        0.0491
@<TRIPOS>UNITY_ATOM_ATTR
9 1
charge -1
@<TRIPOS>BOND
     1    18    19    3
     2    19    12    1
     3    12    13   ar
     4    13    14   ar
     5    14    15   ar
     6    15    11    1
     7     7    11    1
     8     7     8    1
     9     8     9   ar
    10     8    10   ar
    11     7     1    1
    12     1     2    1
    13     2     3    1
    14     3     4    1
    15     4    20    1
    16    20    21    1
    17    21    22    1
    18    22    23    1
    19    23    24    1
    20    24    27    1
    21    27    28    1
    22    28    29   ar
    23    29    30   ar
    24    30    31   ar
    25    31    32    1
    26    31    33   ar
    27    33    34    1
    28    33    35   ar
    29    24    25    1
    30    25    26    1
    31     4     5    1
    32     5     6    1
    33    15    16   ar
    34    16    17   ar
    35    17    12   ar
    36     6     1    1
    37    26    21    1
    38    35    28   ar
@<TRIPOS>MOLECULE
*****
 35 38 0 0 0
SMALL
GASTEIGER

@<TRIPOS>ATOM
      1 N         140.3479  140.6565  167.6280 N.3     1  UNL1       -0.2691
      2 C         141.6070  139.8673  167.4234 C.3     1  UNL1        0.0724
      3 C         142.7849  140.4977  166.7415 C.3     1  UNL1        0.0188
      4 C         142.7037  141.9175  166.2641 C.3     1  UNL1        0.0188
      5 C         141.4446  142.7067  166.4687 C.3     1  UNL1        0.0188
      6 C         140.2667  142.0762  167.1507 C.3     1  UNL1        0.0724
      7 C         139.1700  140.0260  168.3100 C.3     1  UNL1        0.0987
      8 C         138.9588  140.2276  169.7813 C.2     1  UNL1        0.0652
      9 O         139.9717  140.9854  170.5875 O.co2   1  UNL1       -0.5478
     10 O         137.7348  139.6715  170.4465 O.co2   1  UNL1       -0.5478
     11 C         138.2034  139.1938  167.5207 C.3     1  UNL1        0.0480
     12 C         138.7964  138.6485  163.0934 C.ar    1  UNL1        0.0684
     13 C         138.2933  139.9568  163.6272 C.ar    1  UNL1        0.0100
     14 C         138.0956  140.1386  165.1029 C.ar    1  UNL1       -0.0035
     15 C         138.4011  139.0120  166.0450 C.ar    1  UNL1       -0.0204
     16 C         138.9042  137.7037  165.5112 C.ar    1  UNL1       -0.0035
     17 C         139.1019  137.5219  164.0354 C.ar    1  UNL1        0.0100
     18 N         139.1918  138.2849  160.1419 N.1     1  UNL1       -0.1908
     19 C         138.9941  138.4667  161.6177 C.1     1  UNL1        0.1004
     20 C         143.8816  142.5479  165.5821 C.3     1  UNL1        0.0721
     21 N         143.9199  142.6421  164.0856 N.3     1  UNL1       -0.2724
     22 C         143.1565  143.7250  163.3825 C.3     1  UNL1        0.0758
     23 C         143.1948  143.8192  161.8859 C.3     1  UNL1        0.0609
     24 C         143.9964  142.8304  161.0925 C.3     1  UNL1        0.1687
     25 C         144.7597  141.7474  161.7956 C.3     1  UNL1        0.0609
     26 C         144.7215  141.6532  163.2922 C.3     1  UNL1        0.0758
     27 O         144.0347  142.9245  159.5959 O.3     1  UNL1       -0.4790
     28 C         142.7639  143.1233  158.8242 C.ar    1  UNL1        0.1393
     29 C         142.5781  144.3561  157.9900 C.ar    1  UNL1        0.0378
     30 C         141.3073  144.5549  157.2183 C.ar    1  UNL1        0.0154
     31 C         140.2223  143.5210  157.2807 C.ar    1  UNL1        0.0684
     32 CL        138.9515  143.7199  156.5090 Cl      1  UNL1       -0.0814
     33 C         140.4081  142.2883  158.1149 C.ar    1  UNL1        0.0712
     34 CL        139.3232  141.2544  158.1773 Cl      1  UNL1       -0.0813
     35 C         141.6789  142.0894  158.8866 C.ar    1  UNL1        0.0491
@<TRIPOS>UNITY_ATOM_ATTR
9 1
charge -1
@<TRIPOS>BOND
     1    18    19    3
     2    19    12    1
     3    12    13   ar
     4    13    14   ar
     5    14    15   ar
     6    15    11    1
     7     7    11    1
     8     7     8    1
     9     8     9   ar
    10     8    10   ar
    11     7     1    1
    12     1     2    1
    13     2     3    1
    14     3     4    1
    15     4    20    1
    16    20    21    1
    17    21    22    1
    18    22    23    1
    19    23    24    1
    20    24    27    1
    21    27    28    1
    22    28    29   ar
    23    29    30   ar
    24    30    31   ar
    25    31    32    1
    26    31    33   ar
    27    33    34    1
    28    33    35   ar
    29    24    25    1
    30    25    26    1
    31     4     5    1
    32     5     6    1
    33    15    16   ar
    34    16    17   ar
    35    17    12   ar
    36     6     1    1
    37    26    21    1
    38    35    28   ar
@<TRIPOS>MOLECULE
*****
 35 38 0 0 0
SMALL
GASTEIGER

@<TRIPOS>ATOM
      1 N         140.2576  140.1119  166.7308 N.3     1  UNL1       -0.2691
      2 C         141.5562  139.4414  166.3932 C.3     1  UNL1        0.0724
      3 C         141.6289  138.4847  165.2403 C.3     1  UNL1        0.0188
      4 C         140.4029  138.1984  164.4248 C.3     1  UNL1        0.0188
      5 C         139.1042  138.8689  164.7623 C.3     1  UNL1        0.0188
      6 C         139.0316  139.8257  165.9153 C.3     1  UNL1        0.0724
      7 C         140.1849  141.0687  167.8838 C.3     1  UNL1        0.0987
      8 C         139.7704  140.5790  169.2397 C.2     1  UNL1        0.0652
      9 O         138.5136  139.7752  169.3949 O.co2   1  UNL1       -0.5478
     10 O         140.6129  140.8932  170.4404 O.co2   1  UNL1       -0.5478
     11 C         140.5268  142.5150  167.6809 C.3     1  UNL1        0.0480
     12 C         140.0567  144.3895  163.6170 C.ar    1  UNL1        0.0684
     13 C         138.9824  144.5591  164.6500 C.ar    1  UNL1        0.0100
     14 C         139.1391  143.9343  166.0046 C.ar    1  UNL1       -0.0035
     15 C         140.3701  143.1398  166.3263 C.ar    1  UNL1       -0.0204
     16 C         141.4444  142.9702  165.2933 C.ar    1  UNL1       -0.0035
     17 C         141.2877  143.5951  163.9386 C.ar    1  UNL1        0.0100
     18 N         139.7433  145.6392  160.9077 N.1     1  UNL1       -0.1908
     19 C         139.9000  145.0143  162.2624 C.1     1  UNL1        0.1004
     20 C         140.4756  137.2417  163.2718 C.3     1  UNL1        0.0721
     21 N         140.5711  137.7638  161.8689 N.3     1  UNL1       -0.2724
     22 C         141.9136  137.9344  161.2219 C.3     1  UNL1        0.0758
     23 C         142.0092  138.4565  159.8190 C.3     1  UNL1        0.0609
     24 C         140.7622  138.8079  159.0629 C.3     1  UNL1        0.1687
     25 C         139.4198  138.6373  159.7099 C.3     1  UNL1        0.0609
     26 C         139.3242  138.1152  161.1128 C.3     1  UNL1        0.0758
     27 O         140.8578  139.3300  157.6600 O.3     1  UNL1       -0.4790
     28 C         139.8494  138.9085  156.6326 C.ar    1  UNL1        0.1393
     29 C         139.8293  137.4924  156.1382 C.ar    1  UNL1        0.0378
     30 C         138.8210  137.0710  155.1108 C.ar    1  UNL1        0.0154
     31 C         137.8327  138.0655  154.5778 C.ar    1  UNL1        0.0684
     32 CL        136.8243  137.6440  153.5503 Cl      1  UNL1       -0.0814
     33 C         137.8528  139.4816  155.0721 C.ar    1  UNL1        0.0712
     34 CL        136.8645  140.4761  154.5390 Cl      1  UNL1       -0.0813
     35 C         138.8612  139.9031  156.0995 C.ar    1  UNL1        0.0491
@<TRIPOS>UNITY_ATOM_ATTR
9 1
charge -1
@<TRIPOS>BOND
     1    18    19    3
     2    19    12    1
     3    12    13   ar
     4    13    14   ar
     5    14    15   ar
     6    15    11    1
     7     7    11    1
     8     7     8    1
     9     8     9   ar
    10     8    10   ar
    11     7     1    1
    12     1     2    1
    13     2     3    1
    14     3     4    1
    15     4    20    1
    16    20    21    1
    17    21    22    1
    18    22    23    1
    19    23    24    1
    20    24    27    1
    21    27    28    1
    22    28    29   ar
    23    29    30   ar
    24    30    31   ar
    25    31    32    1
    26    31    33   ar
    27    33    34    1
    28    33    35   ar
    29    24    25    1
    30    25    26    1
    31     4     5    1
    32     5     6    1
    33    15    16   ar
    34    16    17   ar
    35    17    12   ar
    36     6     1    1
    37    26    21    1
    38    35    28   ar
