@<TRIPOS>MOLECULE
*****
 30 34 0 0 0
SMALL
GASTEIGER

@<TRIPOS>ATOM
      1 C         145.0581  140.5465  164.2729 C.3     1  UNL1        0.0294
      2 C         145.5259  141.7401  163.4939 C.3     1  UNL1        0.0666
      3 S         144.5939  142.8903  163.2524 S.3     1  UNL1       -0.0756
      4 C         140.7751  142.3331  163.6669 C.ar    1  UNL1        0.2029
      5 N         141.1219  142.9568  164.9863 N.ar    1  UNL1       -0.1250
      6 N         142.5947  143.2414  164.9916 N.ar    1  UNL1       -0.1220
      7 C         143.1581  142.7936  163.6755 C.ar    1  UNL1        0.1933
      8 N         142.0335  142.2323  162.8568 N.ar    1  UNL1       -0.2860
      9 C         142.1474  141.6690  161.4712 C.3     1  UNL1        0.1341
     10 C         137.9699  143.8873  164.2714 C.3     1  UNL1        0.0556
     11 C         138.1202  142.6027  163.5116 C.ar    1  UNL1        0.1001
     12 N         137.0075  141.8070  162.8962 N.ar    1  UNL1       -0.2085
     13 C         137.6092  140.6009  162.2379 C.ar    1  UNL1        0.2849
     14 O         139.0938  140.6512  162.4465 O.2     1  UNL1       -0.4283
     15 C         139.4096  141.8884  163.2337 C.ar    1  UNL1        0.1964
     16 C         144.6427  139.2974  163.5539 C.3     1  UNL1        0.0730
     17 N         143.2184  138.8319  163.6209 N.3     1  UNL1       -0.2724
     18 C         142.5076  138.0161  162.5820 C.3     1  UNL1        0.0725
     19 C         141.1047  137.7805  163.0576 C.3     1  UNL1        0.0227
     20 C         140.9483  138.4507  164.3904 C.3     1  UNL1        0.0350
     21 C         139.6420  137.8009  164.0423 C.3     1  UNL1        0.0101
     22 C         138.6783  138.0695  165.1599 C.3     1  UNL1        0.0264
     23 C         139.3891  138.8852  166.1988 C.ar    1  UNL1       -0.0256
     24 C         138.9400  139.4440  167.5164 C.ar    1  UNL1        0.0021
     25 C         139.8940  140.2383  168.3585 C.ar    1  UNL1        0.0342
     26 BR        139.4449  140.7971  169.6761 Br      1  UNL1       -0.0490
     27 C         141.2969  140.4739  167.8829 C.ar    1  UNL1        0.0064
     28 C         141.7459  139.9152  166.5653 C.ar    1  UNL1       -0.0040
     29 C         140.7920  139.1209  165.7232 C.ar    1  UNL1       -0.0254
     30 C         142.2547  139.1005  164.7386 C.3     1  UNL1        0.0761
@<TRIPOS>BOND
     1    10    11    1
     2    11    12   ar
     3    12    13   ar
     4    13    14   ar
     5    14    15   ar
     6    15     4    1
     7     4     5   ar
     8     5     6   ar
     9     6     7   ar
    10     7     3    1
    11     3     2    1
    12     2     1    1
    13     1    16    1
    14    16    17    1
    15    17    18    1
    16    18    19    1
    17    19    20    1
    18    20    21    1
    19    21    22    1
    20    22    23    1
    21    23    24   ar
    22    24    25   ar
    23    25    26    1
    24    25    27   ar
    25    27    28   ar
    26    28    29   ar
    27    20    30    1
    28     7     8   ar
    29     8     9    1
    30    15    11   ar
    31     8     4   ar
    32    30    17    1
    33    29    20    1
    34    29    23   ar
@<TRIPOS>MOLECULE
*****
 30 34 0 0 0
SMALL
GASTEIGER

@<TRIPOS>ATOM
      1 C         143.0231  145.1550  163.0901 C.3     1  UNL1        0.0294
      2 C         141.5732  145.4157  163.3725 C.3     1  UNL1        0.0666
      3 S         140.5539  145.2384  162.2865 S.3     1  UNL1       -0.0756
      4 C         138.5981  141.8888  162.4325 C.ar    1  UNL1        0.2029
      5 N         137.4791  142.8826  162.5346 N.ar    1  UNL1       -0.1250
      6 N         138.0756  144.2583  162.4923 N.ar    1  UNL1       -0.1220
      7 C         139.5632  144.1147  162.3641 C.ar    1  UNL1        0.1933
      8 N         139.8861  142.6504  162.3271 N.ar    1  UNL1       -0.2860
      9 C         141.2565  142.0525  162.2061 C.3     1  UNL1        0.1341
     10 C         139.1788  139.9105  164.9621 C.3     1  UNL1        0.0556
     11 C         138.7212  139.4864  163.5980 C.ar    1  UNL1        0.1001
     12 N         138.4501  138.0785  163.1571 N.ar    1  UNL1       -0.2085
     13 C         138.0157  138.1177  161.7219 C.ar    1  UNL1        0.2849
     14 O         138.0183  139.5498  161.2758 O.2     1  UNL1       -0.4283
     15 C         138.4543  140.3957  162.4353 C.ar    1  UNL1        0.1964
     16 C         143.9139  144.6211  164.1724 C.3     1  UNL1        0.0730
     17 N         143.9672  143.1461  164.4404 N.3     1  UNL1       -0.2724
     18 C         144.8476  142.1540  163.7401 C.3     1  UNL1        0.0725
     19 C         144.5739  140.7992  164.3227 C.3     1  UNL1        0.0227
     20 C         143.5243  140.9539  165.3831 C.3     1  UNL1        0.0350
     21 C         143.8993  139.5034  165.3103 C.3     1  UNL1        0.0101
     22 C         143.0814  138.7617  166.3257 C.3     1  UNL1        0.0264
     23 C         142.2010  139.7539  167.0259 C.ar    1  UNL1       -0.0256
     24 C         141.1854  139.5986  168.1189 C.ar    1  UNL1        0.0021
     25 C         140.4435  140.7982  168.6292 C.ar    1  UNL1        0.0342
     26 BR        139.4279  140.6430  169.7222 Br      1  UNL1       -0.0490
     27 C         140.7172  142.1531  168.0467 C.ar    1  UNL1        0.0064
     28 C         141.7328  142.3083  166.9538 C.ar    1  UNL1       -0.0040
     29 C         142.4747  141.1087  166.4434 C.ar    1  UNL1       -0.0254
     30 C         143.1493  142.4045  165.4558 C.3     1  UNL1        0.0761
@<TRIPOS>BOND
     1    10    11    1
     2    11    12   ar
     3    12    13   ar
     4    13    14   ar
     5    14    15   ar
     6    15     4    1
     7     4     5   ar
     8     5     6   ar
     9     6     7   ar
    10     7     3    1
    11     3     2    1
    12     2     1    1
    13     1    16    1
    14    16    17    1
    15    17    18    1
    16    18    19    1
    17    19    20    1
    18    20    21    1
    19    21    22    1
    20    22    23    1
    21    23    24   ar
    22    24    25   ar
    23    25    26    1
    24    25    27   ar
    25    27    28   ar
    26    28    29   ar
    27    20    30    1
    28     7     8   ar
    29     8     9    1
    30    15    11   ar
    31     8     4   ar
    32    30    17    1
    33    29    20    1
    34    29    23   ar
@<TRIPOS>MOLECULE
*****
 30 34 0 0 0
SMALL
GASTEIGER

@<TRIPOS>ATOM
      1 C         140.2935  145.2180  162.9015 C.3     1  UNL1        0.0294
      2 C         141.7199  145.4279  163.3154 C.3     1  UNL1        0.0666
      3 S         142.7692  144.4305  162.9229 S.3     1  UNL1       -0.0756
      4 C         142.3629  140.7437  164.0666 C.ar    1  UNL1        0.2029
      5 N         143.3358  141.2579  165.0860 N.ar    1  UNL1       -0.1250
      6 N         143.6064  142.7016  164.7816 N.ar    1  UNL1       -0.1220
      7 C         142.8008  143.0796  163.5741 C.ar    1  UNL1        0.1933
      8 N         142.0323  141.8696  163.1321 N.ar    1  UNL1       -0.2860
      9 C         141.0973  141.7980  161.9614 C.3     1  UNL1        0.1341
     10 C         143.1379  138.2747  166.0549 C.3     1  UNL1        0.0556
     11 C         142.1729  138.2137  164.9082 C.ar    1  UNL1        0.1001
     12 N         141.3946  137.0072  164.4740 N.ar    1  UNL1       -0.2085
     13 C         140.5574  137.3963  163.2918 C.ar    1  UNL1        0.2849
     14 O         140.8182  138.8433  162.9952 O.2     1  UNL1       -0.4283
     15 C         141.8167  139.3485  163.9942 C.ar    1  UNL1        0.1964
     16 C         139.2483  144.9213  163.9356 C.3     1  UNL1        0.0730
     17 N         138.9340  143.5000  164.2979 N.3     1  UNL1       -0.2724
     18 C         137.9675  142.6014  163.5848 C.3     1  UNL1        0.0725
     19 C         137.9672  141.2739  164.2831 C.3     1  UNL1        0.0227
     20 C         138.9335  141.3520  165.4278 C.3     1  UNL1        0.0350
     21 C         138.3360  139.9762  165.4186 C.3     1  UNL1        0.0101
     22 C         138.9330  139.2040  166.5576 C.3     1  UNL1        0.0264
     23 C         139.8994  140.1026  167.2707 C.ar    1  UNL1       -0.0256
     24 C         140.7792  139.8835  168.4656 C.ar    1  UNL1        0.0021
     25 C         141.6594  140.9919  168.9623 C.ar    1  UNL1        0.0342
     26 BR        142.5392  140.7728  170.1572 Br      1  UNL1       -0.0490
     27 C         141.6597  142.3194  168.2640 C.ar    1  UNL1        0.0064
     28 C         140.7799  142.5385  167.0691 C.ar    1  UNL1       -0.0040
     29 C         139.8998  141.4301  166.5724 C.ar    1  UNL1       -0.0254
     30 C         139.5310  142.7278  165.4369 C.3     1  UNL1        0.0761
@<TRIPOS>BOND
     1    10    11    1
     2    11    12   ar
     3    12    13   ar
     4    13    14   ar
     5    14    15   ar
     6    15     4    1
     7     4     5   ar
     8     5     6   ar
     9     6     7   ar
    10     7     3    1
    11     3     2    1
    12     2     1    1
    13     1    16    1
    14    16    17    1
    15    17    18    1
    16    18    19    1
    17    19    20    1
    18    20    21    1
    19    21    22    1
    20    22    23    1
    21    23    24   ar
    22    24    25   ar
    23    25    26    1
    24    25    27   ar
    25    27    28   ar
    26    28    29   ar
    27    20    30    1
    28     7     8   ar
    29     8     9    1
    30    15    11   ar
    31     8     4   ar
    32    30    17    1
    33    29    20    1
    34    29    23   ar
@<TRIPOS>MOLECULE
*****
 30 34 0 0 0
SMALL
GASTEIGER

@<TRIPOS>ATOM
      1 C         142.6608  144.9891  163.5930 C.3     1  UNL1        0.0294
      2 C         141.8258  144.9955  162.3469 C.3     1  UNL1        0.0666
      3 S         140.5341  144.2340  162.3058 S.3     1  UNL1       -0.0756
      4 C         139.9500  140.6846  163.7640 C.ar    1  UNL1        0.2029
      5 N         140.9885  140.4015  162.7192 N.ar    1  UNL1       -0.1250
      6 N         141.3337  141.6967  162.0458 N.ar    1  UNL1       -0.1220
      7 C         140.5086  142.7802  162.6744 C.ar    1  UNL1        0.1933
      8 N         139.6534  142.1548  163.7363 N.ar    1  UNL1       -0.2860
      9 C         138.6737  142.8733  164.6160 C.3     1  UNL1        0.1341
     10 C         140.5593  137.4787  163.7909 C.3     1  UNL1        0.0556
     11 C         139.5991  138.2013  164.6886 C.ar    1  UNL1        0.1001
     12 N         138.7503  137.5771  165.7563 N.ar    1  UNL1       -0.2085
     13 C         137.9457  138.6649  166.4038 C.ar    1  UNL1        0.2849
     14 O         138.2972  139.9614  165.7363 O.2     1  UNL1       -0.4283
     15 C         139.3190  139.6748  164.6763 C.ar    1  UNL1        0.1964
     16 C         143.9934  144.3005  163.5994 C.3     1  UNL1        0.0730
     17 N         144.0869  142.8513  163.9748 N.3     1  UNL1       -0.2724
     18 C         144.9969  141.8356  163.3501 C.3     1  UNL1        0.0725
     19 C         144.7592  140.5199  164.0300 C.3     1  UNL1        0.0227
     20 C         143.7023  140.7224  165.0750 C.3     1  UNL1        0.0350
     21 C         144.1178  139.2815  165.1091 C.3     1  UNL1        0.0101
     22 C         143.3177  138.5935  166.1752 C.3     1  UNL1        0.0264
     23 C         142.4077  139.6092  166.7999 C.ar    1  UNL1       -0.0256
     24 C         141.3934  139.5059  167.9001 C.ar    1  UNL1        0.0021
     25 C         140.6167  140.7184  168.3203 C.ar    1  UNL1        0.0342
     26 BR        139.6023  140.6152  169.4205 Br      1  UNL1       -0.0490
     27 C         140.8543  142.0341  167.6404 C.ar    1  UNL1        0.0064
     28 C         141.8687  142.1373  166.5402 C.ar    1  UNL1       -0.0040
     29 C         142.6454  140.9249  166.1200 C.ar    1  UNL1       -0.0254
     30 C         143.2868  142.1633  165.0409 C.3     1  UNL1        0.0761
@<TRIPOS>BOND
     1    10    11    1
     2    11    12   ar
     3    12    13   ar
     4    13    14   ar
     5    14    15   ar
     6    15     4    1
     7     4     5   ar
     8     5     6   ar
     9     6     7   ar
    10     7     3    1
    11     3     2    1
    12     2     1    1
    13     1    16    1
    14    16    17    1
    15    17    18    1
    16    18    19    1
    17    19    20    1
    18    20    21    1
    19    21    22    1
    20    22    23    1
    21    23    24   ar
    22    24    25   ar
    23    25    26    1
    24    25    27   ar
    25    27    28   ar
    26    28    29   ar
    27    20    30    1
    28     7     8   ar
    29     8     9    1
    30    15    11   ar
    31     8     4   ar
    32    30    17    1
    33    29    20    1
    34    29    23   ar
@<TRIPOS>MOLECULE
*****
 30 34 0 0 0
SMALL
GASTEIGER

@<TRIPOS>ATOM
      1 C         139.0135  138.0906  161.7849 C.3     1  UNL1        0.0294
      2 C         139.9366  137.6030  162.8620 C.3     1  UNL1        0.0666
      3 S         141.4194  137.7733  162.7128 S.3     1  UNL1       -0.0756
      4 C         142.9448  141.2095  163.6781 C.ar    1  UNL1        0.2029
      5 N         143.3650  140.3673  164.8462 N.ar    1  UNL1       -0.1250
      6 N         142.8447  138.9777  164.6267 N.ar    1  UNL1       -0.1220
      7 C         142.1030  138.9609  163.3231 C.ar    1  UNL1        0.1933
      8 N         142.1648  140.3402  162.7367 N.ar    1  UNL1       -0.2860
      9 C         141.5540  140.7740  161.4372 C.3     1  UNL1        0.1341
     10 C         144.8329  142.4791  161.3387 C.3     1  UNL1        0.0556
     11 C         144.1187  143.2487  162.4099 C.ar    1  UNL1        0.1001
     12 N         144.1470  144.7371  162.5940 N.ar    1  UNL1       -0.2085
     13 C         143.2967  145.0735  163.7830 C.ar    1  UNL1        0.2849
     14 O         142.7428  143.7929  164.3338 O.2     1  UNL1       -0.4283
     15 C         143.2509  142.6652  163.4852 C.ar    1  UNL1        0.1964
     16 C         137.8592  138.9828  162.1335 C.3     1  UNL1        0.0730
     17 N         138.1097  140.3904  162.5873 N.3     1  UNL1       -0.2724
     18 C         137.7677  141.6365  161.8254 C.3     1  UNL1        0.0725
     19 C         138.1928  142.8152  162.6499 C.3     1  UNL1        0.0227
     20 C         138.7974  142.2977  163.9214 C.3     1  UNL1        0.0350
     21 C         138.8487  143.7963  163.9601 C.3     1  UNL1        0.0101
     22 C         139.4851  144.2050  165.2555 C.3     1  UNL1        0.0264
     23 C         139.8270  142.9589  166.0173 C.ar    1  UNL1       -0.0256
     24 C         140.4704  142.7454  167.3554 C.ar    1  UNL1        0.0021
     25 C         140.6889  141.3531  167.8689 C.ar    1  UNL1        0.0342
     26 BR        141.3323  141.1395  169.2070 Br      1  UNL1       -0.0490
     27 C         140.2639  140.1743  167.0444 C.ar    1  UNL1        0.0064
     28 C         139.6204  140.3879  165.7064 C.ar    1  UNL1       -0.0040
     29 C         139.4020  141.7802  165.1929 C.ar    1  UNL1       -0.0254
     30 C         138.7460  140.7991  163.8827 C.3     1  UNL1        0.0761
@<TRIPOS>BOND
     1    10    11    1
     2    11    12   ar
     3    12    13   ar
     4    13    14   ar
     5    14    15   ar
     6    15     4    1
     7     4     5   ar
     8     5     6   ar
     9     6     7   ar
    10     7     3    1
    11     3     2    1
    12     2     1    1
    13     1    16    1
    14    16    17    1
    15    17    18    1
    16    18    19    1
    17    19    20    1
    18    20    21    1
    19    21    22    1
    20    22    23    1
    21    23    24   ar
    22    24    25   ar
    23    25    26    1
    24    25    27   ar
    25    27    28   ar
    26    28    29   ar
    27    20    30    1
    28     7     8   ar
    29     8     9    1
    30    15    11   ar
    31     8     4   ar
    32    30    17    1
    33    29    20    1
    34    29    23   ar
@<TRIPOS>MOLECULE
*****
 30 34 0 0 0
SMALL
GASTEIGER

@<TRIPOS>ATOM
      1 C         144.5469  139.6380  164.3173 C.3     1  UNL1        0.0294
      2 C         145.5958  140.5873  163.8185 C.3     1  UNL1        0.0666
      3 S         145.3839  142.0677  163.9349 S.3     1  UNL1       -0.0756
      4 C         142.3387  143.8191  162.2840 C.ar    1  UNL1        0.2029
      5 N         143.3113  143.7914  161.1423 N.ar    1  UNL1       -0.1250
      6 N         144.5704  143.1320  161.6218 N.ar    1  UNL1       -0.1220
      7 C         144.3760  142.7521  163.0598 C.ar    1  UNL1        0.1933
      8 N         142.9968  143.1766  163.4691 N.ar    1  UNL1       -0.2860
      9 C         142.3833  142.9914  164.8253 C.3     1  UNL1        0.1341
     10 C         139.5607  142.1212  162.5077 C.3     1  UNL1        0.0556
     11 C         139.6748  143.6086  162.3499 C.ar    1  UNL1        0.1001
     12 N         138.5320  144.5766  162.2672 N.ar    1  UNL1       -0.2085
     13 C         139.1026  145.9553  162.1133 C.ar    1  UNL1        0.2849
     14 O         140.5980  145.8393  162.1008 O.2     1  UNL1       -0.4283
     15 C         140.9516  144.3890  162.2471 C.ar    1  UNL1        0.1964
     16 C         143.5187  139.0919  163.3715 C.3     1  UNL1        0.0730
     17 N         142.0861  138.9824  163.8027 N.3     1  UNL1       -0.2724
     18 C         140.9413  138.5225  162.9495 C.3     1  UNL1        0.0725
     19 C         139.6946  138.5693  163.7823 C.3     1  UNL1        0.0227
     20 C         140.0690  139.0582  165.1502 C.3     1  UNL1        0.0350
     21 C         138.5909  138.8029  165.1376 C.3     1  UNL1        0.0101
     22 C         138.0518  139.1340  166.4977 C.3     1  UNL1        0.0264
     23 C         139.1966  139.5938  167.3507 C.ar    1  UNL1       -0.0256
     24 C         139.2649  140.0492  168.7783 C.ar    1  UNL1        0.0021
     25 C         140.5800  140.4578  169.3731 C.ar    1  UNL1        0.0342
     26 BR        140.6483  140.9132  170.8007 Br      1  UNL1       -0.0490
     27 C         141.8266  140.4109  168.5404 C.ar    1  UNL1        0.0064
     28 C         141.7583  139.9555  167.1128 C.ar    1  UNL1       -0.0040
     29 C         140.4433  139.5470  166.5180 C.ar    1  UNL1       -0.0254
     30 C         141.5470  139.3134  165.1627 C.3     1  UNL1        0.0761
@<TRIPOS>BOND
     1    10    11    1
     2    11    12   ar
     3    12    13   ar
     4    13    14   ar
     5    14    15   ar
     6    15     4    1
     7     4     5   ar
     8     5     6   ar
     9     6     7   ar
    10     7     3    1
    11     3     2    1
    12     2     1    1
    13     1    16    1
    14    16    17    1
    15    17    18    1
    16    18    19    1
    17    19    20    1
    18    20    21    1
    19    21    22    1
    20    22    23    1
    21    23    24   ar
    22    24    25   ar
    23    25    26    1
    24    25    27   ar
    25    27    28   ar
    26    28    29   ar
    27    20    30    1
    28     7     8   ar
    29     8     9    1
    30    15    11   ar
    31     8     4   ar
    32    30    17    1
    33    29    20    1
    34    29    23   ar
@<TRIPOS>MOLECULE
*****
 30 34 0 0 0
SMALL
GASTEIGER

@<TRIPOS>ATOM
      1 C         143.8905  138.7268  161.8086 C.3     1  UNL1        0.0294
      2 C         143.8193  140.1392  162.3088 C.3     1  UNL1        0.0666
      3 S         144.4562  140.5046  163.6167 S.3     1  UNL1       -0.0756
      4 C         142.5634  140.0217  166.9708 C.ar    1  UNL1        0.2029
      5 N         143.2075  138.6771  166.8051 N.ar    1  UNL1       -0.1250
      6 N         143.9949  138.6944  165.5286 N.ar    1  UNL1       -0.1220
      7 C         143.8375  140.0496  164.9052 C.ar    1  UNL1        0.1933
      8 N         142.9528  140.8699  165.7965 N.ar    1  UNL1       -0.2860
      9 C         142.5315  142.2893  165.5558 C.3     1  UNL1        0.1341
     10 C         143.2924  142.2637  169.2272 C.3     1  UNL1        0.0556
     11 C         142.0194  141.4743  169.1477 C.ar    1  UNL1        0.1001
     12 N         140.8580  141.5769  170.0913 N.ar    1  UNL1       -0.2085
     13 C         139.8050  140.6098  169.6374 C.ar    1  UNL1        0.2849
     14 O         140.3158  139.9095  168.4132 O.2     1  UNL1       -0.4283
     15 C         141.6843  140.4438  168.1105 C.ar    1  UNL1        0.1964
     16 C         142.6511  137.8831  161.7651 C.3     1  UNL1        0.0730
     17 N         141.6289  137.9950  162.8572 N.3     1  UNL1       -0.2724
     18 C         141.3029  136.9388  163.8712 C.3     1  UNL1        0.0725
     19 C         140.2258  137.4737  164.7677 C.3     1  UNL1        0.0227
     20 C         139.8861  138.8605  164.3077 C.3     1  UNL1        0.0350
     21 C         139.0190  138.5383  165.4885 C.3     1  UNL1        0.0101
     22 C         138.1433  139.7260  165.7582 C.3     1  UNL1        0.0264
     23 C         138.4693  140.7821  164.7442 C.ar    1  UNL1       -0.0256
     24 C         137.9246  142.1618  164.5213 C.ar    1  UNL1        0.0021
     25 C         138.4569  143.0065  163.4020 C.ar    1  UNL1        0.0342
     26 BR        137.9121  144.3862  163.1791 Br      1  UNL1       -0.0490
     27 C         139.5339  142.4717  162.5055 C.ar    1  UNL1        0.0064
     28 C         140.0787  141.0920  162.7284 C.ar    1  UNL1       -0.0040
     29 C         139.5464  140.2472  163.8477 C.ar    1  UNL1       -0.0254
     30 C         140.7533  139.1826  163.1269 C.3     1  UNL1        0.0761
@<TRIPOS>BOND
     1    10    11    1
     2    11    12   ar
     3    12    13   ar
     4    13    14   ar
     5    14    15   ar
     6    15     4    1
     7     4     5   ar
     8     5     6   ar
     9     6     7   ar
    10     7     3    1
    11     3     2    1
    12     2     1    1
    13     1    16    1
    14    16    17    1
    15    17    18    1
    16    18    19    1
    17    19    20    1
    18    20    21    1
    19    21    22    1
    20    22    23    1
    21    23    24   ar
    22    24    25   ar
    23    25    26    1
    24    25    27   ar
    25    27    28   ar
    26    28    29   ar
    27    20    30    1
    28     7     8   ar
    29     8     9    1
    30    15    11   ar
    31     8     4   ar
    32    30    17    1
    33    29    20    1
    34    29    23   ar
@<TRIPOS>MOLECULE
*****
 30 34 0 0 0
SMALL
GASTEIGER

@<TRIPOS>ATOM
      1 C         138.1932  138.6747  161.2091 C.3     1  UNL1        0.0294
      2 C         137.5074  139.8178  160.5214 C.3     1  UNL1        0.0666
      3 S         138.3181  140.9334  159.9313 S.3     1  UNL1       -0.0756
      4 C         140.4953  143.2937  162.1118 C.ar    1  UNL1        0.2029
      5 N         139.1388  143.9110  162.2820 N.ar    1  UNL1       -0.1250
      6 N         138.1581  143.1020  161.4859 N.ar    1  UNL1       -0.1220
      7 C         138.9085  141.9846  160.8237 C.ar    1  UNL1        0.1933
      8 N         140.3529  142.1031  161.2105 N.ar    1  UNL1       -0.2860
      9 C         141.4606  141.1912  160.7728 C.3     1  UNL1        0.1341
     10 C         141.4434  142.7859  165.1929 C.3     1  UNL1        0.0556
     11 C         142.2060  143.5479  164.1499 C.ar    1  UNL1        0.1001
     12 N         143.5383  144.2104  164.3400 N.ar    1  UNL1       -0.2085
     13 C         143.9259  144.8532  163.0413 C.ar    1  UNL1        0.2849
     14 O         142.8332  144.5881  162.0486 O.2     1  UNL1       -0.4283
     15 C         141.7702  143.7814  162.7337 C.ar    1  UNL1        0.1964
     16 C         138.3791  138.6973  162.6973 C.3     1  UNL1        0.0730
     17 N         139.7563  138.5946  163.2828 N.3     1  UNL1       -0.2724
     18 C         140.9834  138.1089  162.5699 C.3     1  UNL1        0.0725
     19 C         142.1337  138.1737  163.5304 C.3     1  UNL1        0.0227
     20 C         141.6175  138.6996  164.8370 C.3     1  UNL1        0.0350
     21 C         143.0868  138.4394  164.9901 C.3     1  UNL1        0.0101
     22 C         143.4786  138.8045  166.3912 C.3     1  UNL1        0.0264
     23 C         142.2515  139.2902  167.1040 C.ar    1  UNL1       -0.0256
     24 C         142.0329  139.7832  168.5037 C.ar    1  UNL1        0.0021
     25 C         140.6641  140.2114  168.9429 C.ar    1  UNL1        0.0342
     26 BR        140.4454  140.7044  170.3426 Br      1  UNL1       -0.0490
     27 C         139.5138  140.1466  167.9824 C.ar    1  UNL1        0.0064
     28 C         139.7324  139.6535  166.5827 C.ar    1  UNL1       -0.0040
     29 C         141.1013  139.2254  166.1435 C.ar    1  UNL1       -0.0254
     30 C         140.1482  138.9597  164.6839 C.3     1  UNL1        0.0761
@<TRIPOS>BOND
     1    10    11    1
     2    11    12   ar
     3    12    13   ar
     4    13    14   ar
     5    14    15   ar
     6    15     4    1
     7     4     5   ar
     8     5     6   ar
     9     6     7   ar
    10     7     3    1
    11     3     2    1
    12     2     1    1
    13     1    16    1
    14    16    17    1
    15    17    18    1
    16    18    19    1
    17    19    20    1
    18    20    21    1
    19    21    22    1
    20    22    23    1
    21    23    24   ar
    22    24    25   ar
    23    25    26    1
    24    25    27   ar
    25    27    28   ar
    26    28    29   ar
    27    20    30    1
    28     7     8   ar
    29     8     9    1
    30    15    11   ar
    31     8     4   ar
    32    30    17    1
    33    29    20    1
    34    29    23   ar
@<TRIPOS>MOLECULE
*****
 30 34 0 0 0
SMALL
GASTEIGER

@<TRIPOS>ATOM
      1 C         140.3138  137.4138  162.7797 C.3     1  UNL1        0.0294
      2 C         138.8406  137.6576  162.9224 C.3     1  UNL1        0.0666
      3 S         138.1530  138.6428  162.0245 S.3     1  UNL1       -0.0756
      4 C         138.7382  142.4563  162.4501 C.ar    1  UNL1        0.2029
      5 N         137.5703  142.2382  163.3658 N.ar    1  UNL1       -0.1250
      6 N         137.2089  140.7832  163.3178 N.ar    1  UNL1       -0.1220
      7 C         138.1535  140.1019  162.3725 C.ar    1  UNL1        0.1933
      8 N         139.0986  141.1359  161.8362 N.ar    1  UNL1       -0.2860
      9 C         140.2092  140.8924  160.8577 C.3     1  UNL1        0.1341
     10 C         140.6457  144.0662  164.5522 C.3     1  UNL1        0.0556
     11 C         140.3018  144.5049  163.1596 C.ar    1  UNL1        0.1001
     12 N         140.7743  145.7605  162.4887 N.ar    1  UNL1       -0.2085
     13 C         140.1896  145.7965  161.1079 C.ar    1  UNL1        0.2849
     14 O         139.3556  144.5631  160.9253 O.2     1  UNL1       -0.4283
     15 C         139.4250  143.7649  162.1934 C.ar    1  UNL1        0.1964
     16 C         141.1984  137.4345  163.9909 C.3     1  UNL1        0.0730
     17 N         141.9888  138.6658  164.3214 N.3     1  UNL1       -0.2724
     18 C         143.1536  139.2012  163.5425 C.3     1  UNL1        0.0725
     19 C         143.6379  140.4441  164.2285 C.3     1  UNL1        0.0227
     20 C         142.7725  140.6768  165.4314 C.3     1  UNL1        0.0350
     21 C         143.7917  141.7758  165.3741 C.3     1  UNL1        0.0101
     22 C         143.5561  142.6878  166.5415 C.3     1  UNL1        0.0264
     23 C         142.3914  142.1523  167.3203 C.ar    1  UNL1       -0.0256
     24 C         141.7093  142.6359  168.5656 C.ar    1  UNL1        0.0021
     25 C         140.5428  141.8767  169.1249 C.ar    1  UNL1        0.0342
     26 BR        139.8606  142.3603  170.3702 Br      1  UNL1       -0.0490
     27 C         140.0585  140.6338  168.4389 C.ar    1  UNL1        0.0064
     28 C         140.7406  140.1502  167.1936 C.ar    1  UNL1       -0.0040
     29 C         141.9071  140.9095  166.6343 C.ar    1  UNL1       -0.0254
     30 C         141.7533  139.5777  165.4888 C.3     1  UNL1        0.0761
@<TRIPOS>BOND
     1    10    11    1
     2    11    12   ar
     3    12    13   ar
     4    13    14   ar
     5    14    15   ar
     6    15     4    1
     7     4     5   ar
     8     5     6   ar
     9     6     7   ar
    10     7     3    1
    11     3     2    1
    12     2     1    1
    13     1    16    1
    14    16    17    1
    15    17    18    1
    16    18    19    1
    17    19    20    1
    18    20    21    1
    19    21    22    1
    20    22    23    1
    21    23    24   ar
    22    24    25   ar
    23    25    26    1
    24    25    27   ar
    25    27    28   ar
    26    28    29   ar
    27    20    30    1
    28     7     8   ar
    29     8     9    1
    30    15    11   ar
    31     8     4   ar
    32    30    17    1
    33    29    20    1
    34    29    23   ar
