@<TRIPOS>MOLECULE
*****
 36 39 0 0 0
SMALL
GASTEIGER

@<TRIPOS>ATOM
      1 N         144.3929  142.9135  163.5956 N.pl3   1  UNL1       -0.3061
      2 H         145.3447  143.1580  163.5356 H       1  UNL1        0.1495
      3 C         140.3750  145.1757  159.7950 C.ar    1  UNL1        0.1580
      4 N         139.6030  146.0335  160.7531 N.ar    1  UNL1       -0.1313
      5 N         140.2194  145.8809  162.1120 N.ar    1  UNL1       -0.1290
      6 C         141.3724  144.9287  161.9938 C.ar    1  UNL1        0.1683
      7 N         142.3472  144.4023  163.0051 N.ar    1  UNL1       -0.3106
      8 C         143.4181  143.4400  162.5843 C.ar    1  UNL1        0.1956
      9 N         143.5142  143.0041  161.1522 N.ar    1  UNL1       -0.2137
     10 C         142.5395  143.5306  160.1409 C.ar    1  UNL1        0.1076
     11 C         141.4686  144.4929  160.5617 C.ar    1  UNL1        0.0882
     12 H         142.2840  144.6884  163.9450 H       1  UNL1        0.1701
     13 C         140.0661  147.2516  155.0416 C.3     1  UNL1        0.0339
     14 C         139.9471  146.0646  155.9509 C.3     1  UNL1        0.1351
     15 C         140.2206  146.2136  157.4183 C.3     1  UNL1        0.1217
     16 N         140.1015  145.0267  158.3277 N.pl3   1  UNL1       -0.2867
     17 C         139.7090  143.6908  157.7697 C.3     1  UNL1        0.1243
     18 C         139.4355  143.5418  156.3024 C.3     1  UNL1        0.1635
     19 O         139.5545  144.7288  155.3930 O.3     1  UNL1       -0.3527
     20 C         143.9175  142.0145  164.6982 C.3     1  UNL1        0.0718
     21 C         143.8743  140.5297  164.4893 C.3     1  UNL1        0.0210
     22 C         143.3989  139.6307  165.5919 C.3     1  UNL1        0.0191
     23 C         142.9667  140.2166  166.9035 C.3     1  UNL1        0.0752
     24 C         143.0100  141.7013  167.1124 C.3     1  UNL1        0.0191
     25 C         143.4854  142.6003  166.0097 C.3     1  UNL1        0.0210
     26 N         142.4914  139.3176  168.0062 N.3     1  UNL1       -0.1847
     27 H         143.3155  138.8432  168.3753 H       1  UNL1        0.1484
     28 S         141.7609  139.8950  169.1823 S.O2    1  UNL1        0.0410
     29 O         140.4801  139.8637  168.4022 O.2     1  UNL1       -0.1575
     30 O         143.0417  139.9262  169.9623 O.2     1  UNL1       -0.1575
     31 C         141.0306  140.4723  170.3583 C.3     1  UNL1        0.1776
     32 C         141.3653  141.8507  170.8460 C.3     1  UNL1        0.1302
     33 C         140.7967  143.0514  170.1495 C.3     1  UNL1        0.3995
     34 F         140.2281  144.2521  169.4531 F       1  UNL1       -0.1700
     35 F         142.1812  143.5961  169.9582 F       1  UNL1       -0.1700
     36 F         139.4123  142.5068  170.3409 F       1  UNL1       -0.1700
@<TRIPOS>BOND
     1    14    13    1
     2    14    15    1
     3    15    16    1
     4    16     3    1
     5     3     4   ar
     6     4     5   ar
     7     5     6   ar
     8     6     7   ar
     9     7     8   ar
    10     8     1    1
    11    20     1    1
    12    20    21    1
    13    21    22    1
    14    22    23    1
    15    23    26    1
    16    26    28    1
    17    28    29    2
    18    28    30    2
    19    28    31    1
    20    31    32    1
    21    32    33    1
    22    33    34    1
    23    33    35    1
    24    33    36    1
    25    23    24    1
    26    24    25    1
    27     8     9   ar
    28     9    10   ar
    29    10    11   ar
    30    16    17    1
    31    17    18    1
    32    18    19    1
    33    19    14    1
    34    11     3   ar
    35    11     6    1
    36    25    20    1
    37     7    12    1
    38     1     2    1
    39    26    27    1
@<TRIPOS>MOLECULE
*****
 36 39 0 0 0
SMALL
GASTEIGER

@<TRIPOS>ATOM
      1 N         141.5753  144.9537  163.9389 N.pl3   1  UNL1       -0.3061
      2 H         141.7553  145.7988  164.4107 H       1  UNL1        0.1495
      3 C         141.0728  144.7876  157.9870 C.ar    1  UNL1        0.1580
      4 N         142.3284  144.0321  157.6667 N.ar    1  UNL1       -0.1313
      5 N         143.0268  143.7251  158.9581 N.ar    1  UNL1       -0.1290
      6 C         142.2029  144.2909  160.0766 C.ar    1  UNL1        0.1683
      7 N         142.3962  144.2929  161.5641 N.ar    1  UNL1       -0.3106
      8 C         141.3819  144.9516  162.4513 C.ar    1  UNL1        0.1956
      9 N         140.1742  145.6083  161.8511 N.ar    1  UNL1       -0.2137
     10 C         139.9808  145.6062  160.3636 C.ar    1  UNL1        0.1076
     11 C         140.9952  144.9475  159.4764 C.ar    1  UNL1        0.0882
     12 H         143.1889  143.8619  161.9580 H       1  UNL1        0.1701
     13 C         138.8604  148.7418  155.4434 C.3     1  UNL1        0.0339
     14 C         138.9644  147.2713  155.7206 C.3     1  UNL1        0.1351
     15 C         139.9666  146.7647  156.7152 C.3     1  UNL1        0.1217
     16 N         140.0706  145.2943  156.9925 N.pl3   1  UNL1       -0.2867
     17 C         139.1725  144.3304  156.2752 C.3     1  UNL1        0.1243
     18 C         138.1703  144.8370  155.2807 C.3     1  UNL1        0.1635
     19 O         138.0663  146.3075  155.0034 O.3     1  UNL1       -0.3527
     20 C         141.4943  143.6681  164.7074 C.3     1  UNL1        0.0718
     21 C         140.1571  143.1025  165.0843 C.3     1  UNL1        0.0210
     22 C         140.0762  141.8169  165.8528 C.3     1  UNL1        0.0191
     23 C         141.3325  141.0970  166.2446 C.3     1  UNL1        0.0752
     24 C         142.6696  141.6626  165.8678 C.3     1  UNL1        0.0191
     25 C         142.7506  142.9482  165.0992 C.3     1  UNL1        0.0210
     26 N         141.2516  139.8114  167.0132 N.3     1  UNL1       -0.1847
     27 H         141.8346  139.1358  166.5192 H       1  UNL1        0.1484
     28 S         141.6681  139.7713  168.4537 S.O2    1  UNL1        0.0410
     29 O         143.0421  139.3304  168.0442 O.2     1  UNL1       -0.1575
     30 O         140.2941  140.2122  168.8632 O.2     1  UNL1       -0.1575
     31 C         142.0846  139.7312  169.8942 C.3     1  UNL1        0.1776
     32 C         143.1330  140.6781  170.3983 C.3     1  UNL1        0.1302
     33 C         142.8906  142.1578  170.3548 C.3     1  UNL1        0.3995
     34 F         142.6483  143.6374  170.3113 F       1  UNL1       -0.1700
     35 F         141.8468  142.0182  171.4229 F       1  UNL1       -0.1700
     36 F         143.9344  142.2973  169.2867 F       1  UNL1       -0.1700
@<TRIPOS>BOND
     1    14    13    1
     2    14    15    1
     3    15    16    1
     4    16     3    1
     5     3     4   ar
     6     4     5   ar
     7     5     6   ar
     8     6     7   ar
     9     7     8   ar
    10     8     1    1
    11    20     1    1
    12    20    21    1
    13    21    22    1
    14    22    23    1
    15    23    26    1
    16    26    28    1
    17    28    29    2
    18    28    30    2
    19    28    31    1
    20    31    32    1
    21    32    33    1
    22    33    34    1
    23    33    35    1
    24    33    36    1
    25    23    24    1
    26    24    25    1
    27     8     9   ar
    28     9    10   ar
    29    10    11   ar
    30    16    17    1
    31    17    18    1
    32    18    19    1
    33    19    14    1
    34    11     3   ar
    35    11     6    1
    36    25    20    1
    37     7    12    1
    38     1     2    1
    39    26    27    1
@<TRIPOS>MOLECULE
*****
 36 39 0 0 0
SMALL
GASTEIGER

@<TRIPOS>ATOM
      1 N         142.0083  144.3251  163.7346 N.pl3   1  UNL1       -0.3061
      2 H         142.4749  145.1542  163.9879 H       1  UNL1        0.1495
      3 C         139.4734  143.5968  158.3728 C.ar    1  UNL1        0.1580
      4 N         138.2271  142.8788  158.7983 N.ar    1  UNL1       -0.1313
      5 N         138.2671  142.7249  160.2898 N.ar    1  UNL1       -0.1290
      6 C         139.5382  143.3478  160.7862 C.ar    1  UNL1        0.1683
      7 N         140.1130  143.4939  162.1639 N.ar    1  UNL1       -0.3106
      8 C         141.4334  144.1789  162.3568 C.ar    1  UNL1        0.1956
      9 N         142.1790  144.7177  161.1720 N.ar    1  UNL1       -0.2137
     10 C         141.6042  144.5716  159.7943 C.ar    1  UNL1        0.1076
     11 C         140.2838  143.8866  159.6014 C.ar    1  UNL1        0.0882
     12 H         139.6237  143.1403  162.9415 H       1  UNL1        0.1701
     13 C         140.1001  147.1882  154.6702 C.3     1  UNL1        0.0339
     14 C         140.1578  145.7566  155.1144 C.3     1  UNL1        0.1351
     15 C         139.7868  145.3924  156.5215 C.3     1  UNL1        0.1217
     16 N         139.8444  143.9610  156.9658 N.pl3   1  UNL1       -0.2867
     17 C         140.2731  142.8935  156.0029 C.3     1  UNL1        0.1243
     18 C         140.6440  143.2577  154.5959 C.3     1  UNL1        0.1635
     19 O         140.5864  144.6893  154.1516 O.3     1  UNL1       -0.3527
     20 C         141.8724  143.2080  164.7263 C.3     1  UNL1        0.0718
     21 C         142.9018  142.1179  164.7740 C.3     1  UNL1        0.0210
     22 C         142.7658  141.0008  165.7658 C.3     1  UNL1        0.0191
     23 C         141.6005  140.9738  166.7099 C.3     1  UNL1        0.0752
     24 C         140.5711  142.0638  166.6622 C.3     1  UNL1        0.0191
     25 C         140.7071  143.1809  165.6704 C.3     1  UNL1        0.0210
     26 N         141.4645  139.8567  167.7017 N.3     1  UNL1       -0.1847
     27 H         142.3067  139.2869  167.6207 H       1  UNL1        0.1484
     28 S         141.2887  140.1649  169.1591 S.O2    1  UNL1        0.0410
     29 O         142.7387  140.5366  169.2555 O.2     1  UNL1       -0.1575
     30 O         139.8387  139.7933  169.0627 O.2     1  UNL1       -0.1575
     31 C         141.1128  140.4732  170.6165 C.3     1  UNL1        0.1776
     32 C         141.1748  141.8933  171.0955 C.3     1  UNL1        0.1302
     33 C         140.6477  143.0001  170.2310 C.3     1  UNL1        0.3995
     34 F         140.1206  144.1069  169.3667 F       1  UNL1       -0.1700
     35 F         142.0492  143.4732  169.9822 F       1  UNL1       -0.1700
     36 F         139.2462  142.5270  170.4799 F       1  UNL1       -0.1700
@<TRIPOS>BOND
     1    14    13    1
     2    14    15    1
     3    15    16    1
     4    16     3    1
     5     3     4   ar
     6     4     5   ar
     7     5     6   ar
     8     6     7   ar
     9     7     8   ar
    10     8     1    1
    11    20     1    1
    12    20    21    1
    13    21    22    1
    14    22    23    1
    15    23    26    1
    16    26    28    1
    17    28    29    2
    18    28    30    2
    19    28    31    1
    20    31    32    1
    21    32    33    1
    22    33    34    1
    23    33    35    1
    24    33    36    1
    25    23    24    1
    26    24    25    1
    27     8     9   ar
    28     9    10   ar
    29    10    11   ar
    30    16    17    1
    31    17    18    1
    32    18    19    1
    33    19    14    1
    34    11     3   ar
    35    11     6    1
    36    25    20    1
    37     7    12    1
    38     1     2    1
    39    26    27    1
@<TRIPOS>MOLECULE
*****
 36 39 0 0 0
SMALL
GASTEIGER

@<TRIPOS>ATOM
      1 N         142.5722  144.8645  162.2445 N.pl3   1  UNL1       -0.3061
      2 H         143.1988  145.6221  162.1922 H       1  UNL1        0.1495
      3 C         139.3983  143.6035  157.3413 C.ar    1  UNL1        0.1580
      4 N         139.5323  144.9177  156.6309 N.ar    1  UNL1       -0.1313
      5 N         140.3610  145.8265  157.4896 N.ar    1  UNL1       -0.1290
      6 C         140.7392  145.0738  158.7308 C.ar    1  UNL1        0.1683
      7 N         141.5485  145.4620  159.9325 N.ar    1  UNL1       -0.3106
      8 C         141.7628  144.4764  161.0426 C.ar    1  UNL1        0.1956
      9 N         141.1679  143.1025  160.9510 N.ar    1  UNL1       -0.2137
     10 C         140.3585  142.7143  159.7493 C.ar    1  UNL1        0.1076
     11 C         140.1442  143.6999  158.6391 C.ar    1  UNL1        0.0882
     12 H         141.9391  146.3638  159.9927 H       1  UNL1        0.1701
     13 C         139.3989  138.7411  155.5093 C.3     1  UNL1        0.0339
     14 C         138.6501  139.9722  155.9257 C.3     1  UNL1        0.1351
     15 C         139.3986  141.1723  156.4253 C.3     1  UNL1        0.1217
     16 N         138.6498  142.4034  156.8417 N.pl3   1  UNL1       -0.2867
     17 C         137.1523  142.4345  156.7586 C.3     1  UNL1        0.1243
     18 C         136.4038  141.2345  156.2590 C.3     1  UNL1        0.1635
     19 O         137.1527  140.0033  155.8425 O.3     1  UNL1       -0.3527
     20 C         142.4268  144.0985  163.5259 C.3     1  UNL1        0.0718
     21 C         143.6228  143.4373  164.1443 C.3     1  UNL1        0.0210
     22 C         143.4774  142.6713  165.4257 C.3     1  UNL1        0.0191
     23 C         142.1359  142.5664  166.0888 C.3     1  UNL1        0.0752
     24 C         140.9399  143.2276  165.4703 C.3     1  UNL1        0.0191
     25 C         141.0854  143.9936  164.1889 C.3     1  UNL1        0.0210
     26 N         141.9905  141.8004  167.3702 N.3     1  UNL1       -0.1847
     27 H         141.9272  142.4894  168.1196 H       1  UNL1        0.1484
     28 S         140.8399  140.8554  167.5526 S.O2    1  UNL1        0.0410
     29 O         140.2070  141.8124  168.5188 O.2     1  UNL1       -0.1575
     30 O         141.4727  139.8984  166.5864 O.2     1  UNL1       -0.1575
     31 C         139.6894  139.9104  167.7350 C.3     1  UNL1        0.1776
     32 C         138.8058  139.5711  166.5713 C.3     1  UNL1        0.1302
     33 C         138.2247  138.1938  166.4473 C.3     1  UNL1        0.3995
     34 F         137.6437  136.8165  166.3233 F       1  UNL1       -0.1700
     35 F         137.1050  138.5834  167.3661 F       1  UNL1       -0.1700
     36 F         139.3445  137.8041  165.5285 F       1  UNL1       -0.1700
@<TRIPOS>BOND
     1    14    13    1
     2    14    15    1
     3    15    16    1
     4    16     3    1
     5     3     4   ar
     6     4     5   ar
     7     5     6   ar
     8     6     7   ar
     9     7     8   ar
    10     8     1    1
    11    20     1    1
    12    20    21    1
    13    21    22    1
    14    22    23    1
    15    23    26    1
    16    26    28    1
    17    28    29    2
    18    28    30    2
    19    28    31    1
    20    31    32    1
    21    32    33    1
    22    33    34    1
    23    33    35    1
    24    33    36    1
    25    23    24    1
    26    24    25    1
    27     8     9   ar
    28     9    10   ar
    29    10    11   ar
    30    16    17    1
    31    17    18    1
    32    18    19    1
    33    19    14    1
    34    11     3   ar
    35    11     6    1
    36    25    20    1
    37     7    12    1
    38     1     2    1
    39    26    27    1
@<TRIPOS>MOLECULE
*****
 36 39 0 0 0
SMALL
GASTEIGER

@<TRIPOS>ATOM
      1 N         138.0282  143.2171  163.6746 N.pl3   1  UNL1       -0.3061
      2 H         137.1922  143.6979  163.8730 H       1  UNL1        0.1495
      3 C         140.8571  144.0058  158.4708 C.ar    1  UNL1        0.1580
      4 N         142.0056  144.8417  158.9526 N.ar    1  UNL1       -0.1313
      5 N         141.8495  145.0352  160.4318 N.ar    1  UNL1       -0.1290
      6 C         140.6046  144.3189  160.8643 C.ar    1  UNL1        0.1683
      7 N         139.9503  144.1637  162.2050 N.ar    1  UNL1       -0.3106
      8 C         138.6826  143.3723  162.3338 C.ar    1  UNL1        0.1956
      9 N         138.0692  142.7361  161.1218 N.ar    1  UNL1       -0.2137
     10 C         138.7236  142.8912  159.7810 C.ar    1  UNL1        0.1076
     11 C         139.9913  143.6826  159.6522 C.ar    1  UNL1        0.0882
     12 H         140.3528  144.5813  163.0005 H       1  UNL1        0.1701
     13 C         142.2617  141.2069  154.3243 C.3     1  UNL1        0.0339
     14 C         141.3189  142.1701  154.9826 C.3     1  UNL1        0.1351
     15 C         141.5594  142.6064  156.3975 C.3     1  UNL1        0.1217
     16 N         140.6167  143.5695  157.0559 N.pl3   1  UNL1       -0.2867
     17 C         139.4335  144.0966  156.2993 C.3     1  UNL1        0.1243
     18 C         139.1931  143.6603  154.8844 C.3     1  UNL1        0.1635
     19 O         140.1358  142.6971  154.2261 O.3     1  UNL1       -0.3527
     20 C         138.6474  142.3295  164.7132 C.3     1  UNL1        0.0718
     21 C         139.6763  142.8817  165.6548 C.3     1  UNL1        0.0210
     22 C         140.2956  141.9940  166.6934 C.3     1  UNL1        0.0191
     23 C         139.8860  140.5542  166.7902 C.3     1  UNL1        0.0752
     24 C         138.8572  140.0021  165.8486 C.3     1  UNL1        0.0191
     25 C         138.2379  140.8898  164.8101 C.3     1  UNL1        0.0210
     26 N         140.5053  139.6666  167.8288 N.3     1  UNL1       -0.1847
     27 H         141.4609  139.4800  167.5248 H       1  UNL1        0.1484
     28 S         140.5861  140.1243  169.2550 S.O2    1  UNL1        0.0410
     29 O         139.0959  140.0053  169.3777 O.2     1  UNL1       -0.1575
     30 O         142.0763  140.2432  169.1323 O.2     1  UNL1       -0.1575
     31 C         140.6670  140.5819  170.6812 C.3     1  UNL1        0.1776
     32 C         141.0981  141.9838  170.9956 C.3     1  UNL1        0.1302
     33 C         140.5948  143.1273  170.1654 C.3     1  UNL1        0.3995
     34 F         140.0916  144.2708  169.3353 F       1  UNL1       -0.1700
     35 F         141.9706  143.3228  169.6006 F       1  UNL1       -0.1700
     36 F         139.2191  142.9318  170.7302 F       1  UNL1       -0.1700
@<TRIPOS>BOND
     1    14    13    1
     2    14    15    1
     3    15    16    1
     4    16     3    1
     5     3     4   ar
     6     4     5   ar
     7     5     6   ar
     8     6     7   ar
     9     7     8   ar
    10     8     1    1
    11    20     1    1
    12    20    21    1
    13    21    22    1
    14    22    23    1
    15    23    26    1
    16    26    28    1
    17    28    29    2
    18    28    30    2
    19    28    31    1
    20    31    32    1
    21    32    33    1
    22    33    34    1
    23    33    35    1
    24    33    36    1
    25    23    24    1
    26    24    25    1
    27     8     9   ar
    28     9    10   ar
    29    10    11   ar
    30    16    17    1
    31    17    18    1
    32    18    19    1
    33    19    14    1
    34    11     3   ar
    35    11     6    1
    36    25    20    1
    37     7    12    1
    38     1     2    1
    39    26    27    1
@<TRIPOS>MOLECULE
*****
 36 39 0 0 0
SMALL
GASTEIGER

@<TRIPOS>ATOM
      1 N         140.3754  145.2247  163.2064 N.pl3   1  UNL1       -0.3061
      2 H         139.9690  146.0526  163.5510 H       1  UNL1        0.1495
      3 C         140.6092  144.3035  157.3072 C.ar    1  UNL1        0.1580
      4 N         141.7734  145.1900  156.9774 N.ar    1  UNL1       -0.1313
      5 N         142.2519  145.8200  158.2518 N.ar    1  UNL1       -0.1290
      6 C         141.3833  145.3229  159.3692 C.ar    1  UNL1        0.1683
      7 N         141.3858  145.6026  160.8429 N.ar    1  UNL1       -0.3106
      8 C         140.3730  144.9450  161.7327 C.ar    1  UNL1        0.1956
      9 N         139.3577  144.0078  161.1488 N.ar    1  UNL1       -0.2137
     10 C         139.3553  143.7281  159.6752 C.ar    1  UNL1        0.1076
     11 C         140.3681  144.3857  158.7854 C.ar    1  UNL1        0.0882
     12 H         142.0521  146.2177  161.2261 H       1  UNL1        0.1701
     13 C         136.8288  143.9160  153.7633 C.3     1  UNL1        0.0339
     14 C         137.9337  143.2857  154.5583 C.3     1  UNL1        0.1351
     15 C         138.7190  144.1097  155.5352 C.3     1  UNL1        0.1217
     16 N         139.8239  143.4796  156.3302 N.pl3   1  UNL1       -0.2867
     17 C         140.1435  142.0253  156.1483 C.3     1  UNL1        0.1243
     18 C         139.3582  141.2013  155.1713 C.3     1  UNL1        0.1635
     19 O         138.2533  141.8315  154.3764 O.3     1  UNL1       -0.3527
     20 C         140.9969  144.2430  164.1551 C.3     1  UNL1        0.0718
     21 C         140.1828  143.6620  165.2730 C.3     1  UNL1        0.0210
     22 C         140.8043  142.6803  166.2217 C.3     1  UNL1        0.0191
     23 C         142.2399  142.2796  166.0524 C.3     1  UNL1        0.0752
     24 C         143.0539  142.8606  164.9345 C.3     1  UNL1        0.0191
     25 C         142.4324  143.8423  163.9859 C.3     1  UNL1        0.0210
     26 N         142.8614  141.2979  167.0011 N.3     1  UNL1       -0.1847
     27 H         143.8533  141.2507  166.7680 H       1  UNL1        0.1484
     28 S         142.7748  141.5271  168.4810 S.O2    1  UNL1        0.0410
     29 O         141.7978  140.3952  168.5992 O.2     1  UNL1       -0.1575
     30 O         143.7518  142.6591  168.3627 O.2     1  UNL1       -0.1575
     31 C         142.6883  141.7564  169.9608 C.3     1  UNL1        0.1776
     32 C         141.3832  142.1564  170.5826 C.3     1  UNL1        0.1302
     33 C         140.7372  143.4553  170.2006 C.3     1  UNL1        0.3995
     34 F         140.0913  144.7540  169.8186 F       1  UNL1       -0.1700
     35 F         139.4230  142.7522  170.0322 F       1  UNL1       -0.1700
     36 F         142.0514  144.1584  170.3689 F       1  UNL1       -0.1700
@<TRIPOS>BOND
     1    14    13    1
     2    14    15    1
     3    15    16    1
     4    16     3    1
     5     3     4   ar
     6     4     5   ar
     7     5     6   ar
     8     6     7   ar
     9     7     8   ar
    10     8     1    1
    11    20     1    1
    12    20    21    1
    13    21    22    1
    14    22    23    1
    15    23    26    1
    16    26    28    1
    17    28    29    2
    18    28    30    2
    19    28    31    1
    20    31    32    1
    21    32    33    1
    22    33    34    1
    23    33    35    1
    24    33    36    1
    25    23    24    1
    26    24    25    1
    27     8     9   ar
    28     9    10   ar
    29    10    11   ar
    30    16    17    1
    31    17    18    1
    32    18    19    1
    33    19    14    1
    34    11     3   ar
    35    11     6    1
    36    25    20    1
    37     7    12    1
    38     1     2    1
    39    26    27    1
@<TRIPOS>MOLECULE
*****
 36 39 0 0 0
SMALL
GASTEIGER

@<TRIPOS>ATOM
      1 N         139.0256  137.5638  162.4820 N.pl3   1  UNL1       -0.3061
      2 H         138.6996  136.6350  162.4625 H       1  UNL1        0.1495
      3 C         141.6588  139.7006  167.4019 C.ar    1  UNL1        0.1580
      4 N         143.0738  139.3036  167.1018 N.ar    1  UNL1       -0.1313
      5 N         143.0875  138.6046  165.7747 N.ar    1  UNL1       -0.1290
      6 C         141.6810  138.5697  165.2546 C.ar    1  UNL1        0.1683
      7 N         141.0902  138.0086  163.9952 N.ar    1  UNL1       -0.3106
      8 C         139.6164  138.1249  163.7415 C.ar    1  UNL1        0.1956
      9 N         138.7334  138.8023  164.7472 N.ar    1  UNL1       -0.2137
     10 C         139.3242  139.3634  166.0066 C.ar    1  UNL1        0.1076
     11 C         140.7980  139.2471  166.2603 C.ar    1  UNL1        0.0882
     12 H         141.6698  137.5640  163.3351 H       1  UNL1        0.1701
     13 C         140.3398  144.1234  169.7893 C.3     1  UNL1        0.0339
     14 C         140.5278  142.6356  169.8220 C.3     1  UNL1        0.1351
     15 C         140.9993  141.9120  168.5956 C.3     1  UNL1        0.1217
     16 N         141.1873  140.4242  168.6283 N.pl3   1  UNL1       -0.2867
     17 C         140.9038  139.6600  169.8876 C.3     1  UNL1        0.1243
     18 C         140.4323  140.3836  171.1140 C.3     1  UNL1        0.1635
     19 O         140.2443  141.8714  171.0813 O.3     1  UNL1       -0.3527
     20 C         138.9315  138.4178  161.2525 C.3     1  UNL1        0.0718
     21 C         137.7182  139.2691  161.0216 C.3     1  UNL1        0.0210
     22 C         137.6242  140.1231  159.7920 C.3     1  UNL1        0.0191
     23 C         138.7434  140.1257  158.7933 C.3     1  UNL1        0.0752
     24 C         139.9566  139.2744  159.0242 C.3     1  UNL1        0.0191
     25 C         140.0507  138.4205  160.2538 C.3     1  UNL1        0.0210
     26 N         138.6493  140.9797  157.5637 N.3     1  UNL1       -0.1847
     27 H         139.4893  140.7982  157.0142 H       1  UNL1        0.1484
     28 S         137.4823  140.8291  156.6334 S.O2    1  UNL1        0.0410
     29 O         137.0349  142.2208  156.9692 O.2     1  UNL1       -0.1575
     30 O         137.9297  139.4373  156.2976 O.2     1  UNL1       -0.1575
     31 C         136.3153  140.6784  155.7032 C.3     1  UNL1        0.1776
     32 C         134.9247  140.5730  156.2555 C.3     1  UNL1        0.1302
     33 C         133.7541  141.0187  155.4301 C.3     1  UNL1        0.3995
     34 F         132.5836  141.4645  154.6048 F       1  UNL1       -0.1700
     35 F         132.8315  140.7093  156.5716 F       1  UNL1       -0.1700
     36 F         134.6768  141.3282  154.2887 F       1  UNL1       -0.1700
@<TRIPOS>BOND
     1    14    13    1
     2    14    15    1
     3    15    16    1
     4    16     3    1
     5     3     4   ar
     6     4     5   ar
     7     5     6   ar
     8     6     7   ar
     9     7     8   ar
    10     8     1    1
    11    20     1    1
    12    20    21    1
    13    21    22    1
    14    22    23    1
    15    23    26    1
    16    26    28    1
    17    28    29    2
    18    28    30    2
    19    28    31    1
    20    31    32    1
    21    32    33    1
    22    33    34    1
    23    33    35    1
    24    33    36    1
    25    23    24    1
    26    24    25    1
    27     8     9   ar
    28     9    10   ar
    29    10    11   ar
    30    16    17    1
    31    17    18    1
    32    18    19    1
    33    19    14    1
    34    11     3   ar
    35    11     6    1
    36    25    20    1
    37     7    12    1
    38     1     2    1
    39    26    27    1
@<TRIPOS>MOLECULE
*****
 36 39 0 0 0
SMALL
GASTEIGER

@<TRIPOS>ATOM
      1 N         142.0406  144.3194  163.7245 N.pl3   1  UNL1       -0.3061
      2 H         142.4236  145.1873  163.9877 H       1  UNL1        0.1495
      3 C         140.2821  143.7263  158.0446 C.ar    1  UNL1        0.1580
      4 N         141.0087  144.8965  157.4508 N.ar    1  UNL1       -0.1313
      5 N         141.7677  145.5775  158.5508 N.ar    1  UNL1       -0.1290
      6 C         141.5101  144.8283  159.8245 C.ar    1  UNL1        0.1683
      7 N         141.9930  145.0400  161.2288 N.ar    1  UNL1       -0.3106
      8 C         141.5577  144.1077  162.3201 C.ar    1  UNL1        0.1956
      9 N         140.6395  142.9635  162.0073 N.ar    1  UNL1       -0.2137
     10 C         140.1566  142.7518  160.6030 C.ar    1  UNL1        0.1076
     11 C         140.5919  143.6841  159.5117 C.ar    1  UNL1        0.0882
     12 H         142.5956  145.7910  161.4341 H       1  UNL1        0.1701
     13 C         139.3800  138.9576  156.1885 C.3     1  UNL1        0.0339
     14 C         138.9493  140.3824  156.3737 C.3     1  UNL1        0.1351
     15 C         139.8310  141.3420  157.1165 C.3     1  UNL1        0.1217
     16 N         139.4003  142.7667  157.3018 N.pl3   1  UNL1       -0.2867
     17 C         138.0877  143.2320  156.7443 C.3     1  UNL1        0.1243
     18 C         137.2060  142.2724  156.0015 C.3     1  UNL1        0.1635
     19 O         137.6367  140.8476  155.8162 O.3     1  UNL1       -0.3527
     20 C         141.9399  143.2088  164.7276 C.3     1  UNL1        0.0718
     21 C         143.0300  142.1826  164.8224 C.3     1  UNL1        0.0210
     22 C         142.9293  141.0720  165.8256 C.3     1  UNL1        0.0191
     23 C         141.7386  140.9875  166.7340 C.3     1  UNL1        0.0752
     24 C         140.6486  142.0136  166.6392 C.3     1  UNL1        0.0191
     25 C         140.7493  143.1242  165.6360 C.3     1  UNL1        0.0210
     26 N         141.6379  139.8768  167.7371 N.3     1  UNL1       -0.1847
     27 H         142.5075  139.3470  167.6781 H       1  UNL1        0.1484
     28 S         141.4213  140.1934  169.1873 S.O2    1  UNL1        0.0410
     29 O         142.8545  140.6191  169.3085 O.2     1  UNL1       -0.1575
     30 O         139.9882  139.7676  169.0661 O.2     1  UNL1       -0.1575
     31 C         141.2047  140.5099  170.6374 C.3     1  UNL1        0.1776
     32 C         141.1912  141.9368  171.0997 C.3     1  UNL1        0.1302
     33 C         140.6315  143.0078  170.2110 C.3     1  UNL1        0.3995
     34 F         140.0718  144.0788  169.3224 F       1  UNL1       -0.1700
     35 F         142.0149  143.5402  169.9814 F       1  UNL1       -0.1700
     36 F         139.2482  142.4754  170.4406 F       1  UNL1       -0.1700
@<TRIPOS>BOND
     1    14    13    1
     2    14    15    1
     3    15    16    1
     4    16     3    1
     5     3     4   ar
     6     4     5   ar
     7     5     6   ar
     8     6     7   ar
     9     7     8   ar
    10     8     1    1
    11    20     1    1
    12    20    21    1
    13    21    22    1
    14    22    23    1
    15    23    26    1
    16    26    28    1
    17    28    29    2
    18    28    30    2
    19    28    31    1
    20    31    32    1
    21    32    33    1
    22    33    34    1
    23    33    35    1
    24    33    36    1
    25    23    24    1
    26    24    25    1
    27     8     9   ar
    28     9    10   ar
    29    10    11   ar
    30    16    17    1
    31    17    18    1
    32    18    19    1
    33    19    14    1
    34    11     3   ar
    35    11     6    1
    36    25    20    1
    37     7    12    1
    38     1     2    1
    39    26    27    1
@<TRIPOS>MOLECULE
*****
 36 39 0 0 0
SMALL
GASTEIGER

@<TRIPOS>ATOM
      1 N         138.7653  138.4690  164.0161 N.pl3   1  UNL1       -0.3061
      2 H         138.1103  137.7644  164.2253 H       1  UNL1        0.1495
      3 C         138.4375  141.6356  158.9594 C.ar    1  UNL1        0.1580
      4 N         138.2701  143.0041  159.5502 N.ar    1  UNL1       -0.1313
      5 N         138.2725  142.8675  161.0440 N.ar    1  UNL1       -0.1290
      6 C         138.4413  141.4146  161.3764 C.ar    1  UNL1        0.1683
      7 N         138.5153  140.6866  162.6857 N.ar    1  UNL1       -0.3106
      8 C         138.6913  139.1971  162.7067 C.ar    1  UNL1        0.1956
      9 N         138.7933  138.4357  161.4184 N.ar    1  UNL1       -0.2137
     10 C         138.7193  139.1637  160.1090 C.ar    1  UNL1        0.1076
     11 C         138.5433  140.6532  160.0880 C.ar    1  UNL1        0.0882
     12 H         138.4484  141.1863  163.5313 H       1  UNL1        0.1701
     13 C         141.1404  141.1677  154.5463 C.3     1  UNL1        0.0339
     14 C         139.8413  141.0731  155.2902 C.3     1  UNL1        0.1351
     15 C         139.7889  141.4016  156.7528 C.3     1  UNL1        0.1217
     16 N         138.4899  141.3070  157.4968 N.pl3   1  UNL1       -0.2867
     17 C         137.2431  140.8838  156.7780 C.3     1  UNL1        0.1243
     18 C         137.2955  140.5553  155.3153 C.3     1  UNL1        0.1635
     19 O         138.5946  140.6499  154.5714 O.3     1  UNL1       -0.3527
     20 C         139.8374  138.8144  165.0068 C.3     1  UNL1        0.0718
     21 C         139.5192  139.6931  166.1802 C.3     1  UNL1        0.0210
     22 C         140.5913  140.0385  167.1709 C.3     1  UNL1        0.0191
     23 C         141.9814  139.5053  166.9881 C.3     1  UNL1        0.0752
     24 C         142.2994  138.6268  165.8147 C.3     1  UNL1        0.0191
     25 C         141.2274  138.2813  164.8240 C.3     1  UNL1        0.0210
     26 N         143.0534  139.8508  167.9788 N.3     1  UNL1       -0.1847
     27 H         143.5601  140.6498  167.5977 H       1  UNL1        0.1484
     28 S         142.6854  140.2041  169.3894 S.O2    1  UNL1        0.0410
     29 O         142.6495  138.7473  169.7450 O.2     1  UNL1       -0.1575
     30 O         142.7213  141.6609  169.0338 O.2     1  UNL1       -0.1575
     31 C         142.3174  140.5574  170.7999 C.3     1  UNL1        0.1776
     32 C         141.0362  141.2851  171.0809 C.3     1  UNL1        0.1302
     33 C         139.7525  140.8069  170.4696 C.3     1  UNL1        0.3995
     34 F         138.4689  140.3288  169.8583 F       1  UNL1       -0.1700
     35 F         139.6104  142.1132  169.7462 F       1  UNL1       -0.1700
     36 F         139.8946  139.5006  171.1929 F       1  UNL1       -0.1700
@<TRIPOS>BOND
     1    14    13    1
     2    14    15    1
     3    15    16    1
     4    16     3    1
     5     3     4   ar
     6     4     5   ar
     7     5     6   ar
     8     6     7   ar
     9     7     8   ar
    10     8     1    1
    11    20     1    1
    12    20    21    1
    13    21    22    1
    14    22    23    1
    15    23    26    1
    16    26    28    1
    17    28    29    2
    18    28    30    2
    19    28    31    1
    20    31    32    1
    21    32    33    1
    22    33    34    1
    23    33    35    1
    24    33    36    1
    25    23    24    1
    26    24    25    1
    27     8     9   ar
    28     9    10   ar
    29    10    11   ar
    30    16    17    1
    31    17    18    1
    32    18    19    1
    33    19    14    1
    34    11     3   ar
    35    11     6    1
    36    25    20    1
    37     7    12    1
    38     1     2    1
    39    26    27    1
