@<TRIPOS>MOLECULE
*****
 35 38 0 0 0
SMALL
GASTEIGER

@<TRIPOS>ATOM
      1 C         141.3459  141.9902  163.8017 C.ar    1  UNL1        0.1318
      2 C         140.3164  141.0804  163.1997 C.ar    1  UNL1        0.1125
      3 N         139.6018  140.3839  164.3196 N.ar    1  UNL1       -0.2280
      4 C         140.1896  140.8632  165.6137 C.ar    1  UNL1        0.1375
      5 N         141.2676  141.8560  165.2936 N.ar    1  UNL1       -0.3006
      6 C         142.0385  142.5095  166.4020 C.3     1  UNL1        0.1299
      7 C         141.7314  142.1703  167.8305 C.3     1  UNL1        0.1182
      8 N         140.6535  141.1775  168.1506 N.am    1  UNL1       -0.2733
      9 C         140.3465  140.8383  169.5792 C.2     1  UNL1        0.2382
     10 O         139.2685  139.8455  169.8993 O.2     1  UNL1       -0.2735
     11 C         139.8826  140.5240  167.0422 C.3     1  UNL1        0.1109
     12 C         138.8846  139.6468  166.3459 C.3     1  UNL1        0.0276
     13 C         139.2289  139.8801  168.2289 C.3     1  UNL1        0.0276
     14 C         140.0486  140.8989  161.7350 C.ar    1  UNL1        0.0205
     15 C         138.9327  141.6553  161.0773 C.ar    1  UNL1        0.0039
     16 C         138.6649  141.4738  159.6126 C.ar    1  UNL1        0.0297
     17 C         139.5129  140.5360  158.8056 C.ar    1  UNL1        0.1401
     18 F         139.2451  140.3546  157.3409 F       1  UNL1       -0.2042
     19 C         140.6288  139.7796  159.4633 C.ar    1  UNL1        0.0297
     20 C         140.8967  139.9611  160.9280 C.ar    1  UNL1        0.0039
     21 C         141.1174  141.4918  170.6876 C.3     1  UNL1        0.1089
     22 C         142.1092  140.3668  170.6610 C.3     1  UNL1        0.0249
     23 C         140.1256  142.6168  170.7141 C.3     1  UNL1        0.0249
     24 N         141.8883  142.1454  171.7960 N.3     1  UNL1       -0.3164
     25 H         142.6989  141.5723  172.0302 H       1  UNL1        0.1192
     26 H         141.2900  142.2397  172.6167 H       1  UNL1        0.1192
     27 N         142.2884  142.8783  163.0447 N.pl3   1  UNL1       -0.2980
     28 H         143.2201  142.9782  163.3466 H       1  UNL1        0.1536
     29 C         140.3801  145.8214  158.1768 C.3     1  UNL1        0.0310
     30 C         140.8572  145.0857  159.3938 C.ar    1  UNL1       -0.0218
     31 C         140.3149  145.4419  160.7462 C.ar    1  UNL1       -0.0030
     32 C         140.7919  144.7061  161.9632 C.ar    1  UNL1        0.0143
     33 C         141.8113  143.6140  161.8278 C.ar    1  UNL1        0.0493
     34 C         142.3536  143.2578  160.4753 C.ar    1  UNL1        0.0143
     35 C         141.8766  143.9936  159.2583 C.ar    1  UNL1       -0.0030
@<TRIPOS>BOND
     1    29    30    1
     2    30    31   ar
     3    31    32   ar
     4    32    33   ar
     5    33    27    1
     6    27     1    1
     7     1     2   ar
     8     2    14    1
     9    14    15   ar
    10    15    16   ar
    11    16    17   ar
    12    17    18    1
    13    17    19   ar
    14    19    20   ar
    15     2     3   ar
    16     3     4   ar
    17     4     5   ar
    18     5     6    1
    19     6     7    1
    20     7     8    1
    21     8     9   am
    22     9    10    2
    23     9    21    1
    24    21    22    1
    25    21    23    1
    26    21    24    1
    27     8    11    1
    28    11    12    1
    29    11    13    1
    30    33    34   ar
    31    34    35   ar
    32    35    30   ar
    33     5     1   ar
    34    20    14   ar
    35    11     4    1
    36    27    28    1
    37    24    25    1
    38    24    26    1
@<TRIPOS>MOLECULE
*****
 35 38 0 0 0
SMALL
GASTEIGER

@<TRIPOS>ATOM
      1 C         141.5787  140.5485  163.5493 C.ar    1  UNL1        0.1318
      2 C         140.1110  140.4949  163.2445 C.ar    1  UNL1        0.1125
      3 N         139.3758  140.3038  164.5379 N.ar    1  UNL1       -0.2280
      4 C         140.3890  140.2394  165.6420 C.ar    1  UNL1        0.1375
      5 N         141.7506  140.3906  165.0310 N.ar    1  UNL1       -0.3006
      6 C         142.9709  140.3650  165.9028 C.3     1  UNL1        0.1299
      7 C         142.8297  140.1881  167.3856 C.3     1  UNL1        0.1182
      8 N         141.4682  140.0369  167.9966 N.am    1  UNL1       -0.2733
      9 C         141.3270  139.8600  169.4795 C.2     1  UNL1        0.2382
     10 O         139.9655  139.7088  170.0905 O.2     1  UNL1       -0.2735
     11 C         140.2478  140.0625  167.1248 C.3     1  UNL1        0.1109
     12 C         138.8043  140.0218  166.7190 C.3     1  UNL1        0.0276
     13 C         139.6053  139.8715  168.4667 C.3     1  UNL1        0.0276
     14 C         139.4880  140.6118  161.8850 C.ar    1  UNL1        0.0205
     15 C         139.1537  139.3754  161.1044 C.ar    1  UNL1        0.0039
     16 C         138.5306  139.4923  159.7449 C.ar    1  UNL1        0.0297
     17 C         138.2418  140.8456  159.1661 C.ar    1  UNL1        0.1401
     18 F         137.6188  140.9625  157.8066 F       1  UNL1       -0.2042
     19 C         138.5761  142.0820  159.9468 C.ar    1  UNL1        0.0297
     20 C         139.1992  141.9651  161.3062 C.ar    1  UNL1        0.0039
     21 C         142.5473  139.8344  170.3513 C.3     1  UNL1        0.1089
     22 C         142.6964  138.3633  170.0993 C.3     1  UNL1        0.0249
     23 C         142.3983  141.3055  170.6032 C.3     1  UNL1        0.0249
     24 N         143.7678  139.8088  171.2231 N.3     1  UNL1       -0.3164
     25 H         144.1400  138.8598  171.2592 H       1  UNL1        0.1192
     26 H         143.5194  140.1127  172.1646 H       1  UNL1        0.1192
     27 N         142.6811  140.7284  162.5481 N.pl3   1  UNL1       -0.2980
     28 H         143.3919  141.3896  162.7121 H       1  UNL1        0.1536
     29 C         142.7592  137.4190  157.5440 C.3     1  UNL1        0.0310
     30 C         142.7397  138.2463  158.7950 C.ar    1  UNL1       -0.0218
     31 C         142.9160  137.5890  160.1318 C.ar    1  UNL1       -0.0030
     32 C         142.8965  138.4164  161.3828 C.ar    1  UNL1        0.0143
     33 C         142.7007  139.9011  161.2971 C.ar    1  UNL1        0.0493
     34 C         142.5243  140.5584  159.9603 C.ar    1  UNL1        0.0143
     35 C         142.5438  139.7310  158.7093 C.ar    1  UNL1       -0.0030
@<TRIPOS>BOND
     1    29    30    1
     2    30    31   ar
     3    31    32   ar
     4    32    33   ar
     5    33    27    1
     6    27     1    1
     7     1     2   ar
     8     2    14    1
     9    14    15   ar
    10    15    16   ar
    11    16    17   ar
    12    17    18    1
    13    17    19   ar
    14    19    20   ar
    15     2     3   ar
    16     3     4   ar
    17     4     5   ar
    18     5     6    1
    19     6     7    1
    20     7     8    1
    21     8     9   am
    22     9    10    2
    23     9    21    1
    24    21    22    1
    25    21    23    1
    26    21    24    1
    27     8    11    1
    28    11    12    1
    29    11    13    1
    30    33    34   ar
    31    34    35   ar
    32    35    30   ar
    33     5     1   ar
    34    20    14   ar
    35    11     4    1
    36    27    28    1
    37    24    25    1
    38    24    26    1
@<TRIPOS>MOLECULE
*****
 35 38 0 0 0
SMALL
GASTEIGER

@<TRIPOS>ATOM
      1 C         141.6743  138.3734  162.9023 C.ar    1  UNL1        0.1318
      2 C         140.1864  138.5129  163.0309 C.ar    1  UNL1        0.1125
      3 N         139.6102  138.6234  161.6504 N.ar    1  UNL1       -0.2280
      4 C         140.7420  138.5522  160.6686 C.ar    1  UNL1        0.1375
      5 N         142.0177  138.3977  161.4423 N.ar    1  UNL1       -0.3006
      6 C         143.3272  138.2991  160.7175 C.3     1  UNL1        0.1299
      7 C         143.3610  138.3550  159.2189 C.3     1  UNL1        0.1182
      8 N         142.0852  138.5095  158.4452 N.am    1  UNL1       -0.2733
      9 C         142.1190  138.5653  156.9466 C.2     1  UNL1        0.2382
     10 O         140.8433  138.7198  156.1729 O.2     1  UNL1       -0.2735
     11 C         140.7757  138.6081  159.1701 C.3     1  UNL1        0.1109
     12 C         139.2999  138.7423  159.4025 C.3     1  UNL1        0.0276
     13 C         140.2969  138.7106  157.7522 C.3     1  UNL1        0.0276
     14 C         139.4108  138.5376  164.3146 C.ar    1  UNL1        0.0205
     15 C         138.8959  137.2582  164.9045 C.ar    1  UNL1        0.0039
     16 C         138.1203  137.2828  166.1882 C.ar    1  UNL1        0.0297
     17 C         137.8597  138.5869  166.8820 C.ar    1  UNL1        0.1401
     18 F         137.0841  138.6116  168.1657 F       1  UNL1       -0.2042
     19 C         138.3746  139.8663  166.2922 C.ar    1  UNL1        0.0297
     20 C         139.1502  139.8416  165.0085 C.ar    1  UNL1        0.0039
     21 C         143.4285  138.4667  156.2218 C.3     1  UNL1        0.1089
     22 C         143.5617  139.9603  156.2592 C.3     1  UNL1        0.0249
     23 C         143.2954  136.9732  156.1844 C.3     1  UNL1        0.0249
     24 N         144.7381  138.3681  155.4969 N.3     1  UNL1       -0.3164
     25 H         145.1203  139.3033  155.3565 H       1  UNL1        0.1192
     26 H         144.5929  137.9208  154.5918 H       1  UNL1        0.1192
     27 N         142.6480  138.2341  164.0348 N.pl3   1  UNL1       -0.2980
     28 H         143.2510  137.4569  164.0727 H       1  UNL1        0.1536
     29 C         142.8674  142.4135  168.3342 C.3     1  UNL1        0.0310
     30 C         142.8125  141.3686  167.2593 C.ar    1  UNL1       -0.0218
     31 C         143.0067  141.7583  165.8239 C.ar    1  UNL1       -0.0030
     32 C         142.9518  140.7135  164.7490 C.ar    1  UNL1        0.0143
     33 C         142.7028  139.2789  165.1096 C.ar    1  UNL1        0.0493
     34 C         142.5087  138.8892  166.5451 C.ar    1  UNL1        0.0143
     35 C         142.5635  139.9341  167.6199 C.ar    1  UNL1       -0.0030
@<TRIPOS>BOND
     1    29    30    1
     2    30    31   ar
     3    31    32   ar
     4    32    33   ar
     5    33    27    1
     6    27     1    1
     7     1     2   ar
     8     2    14    1
     9    14    15   ar
    10    15    16   ar
    11    16    17   ar
    12    17    18    1
    13    17    19   ar
    14    19    20   ar
    15     2     3   ar
    16     3     4   ar
    17     4     5   ar
    18     5     6    1
    19     6     7    1
    20     7     8    1
    21     8     9   am
    22     9    10    2
    23     9    21    1
    24    21    22    1
    25    21    23    1
    26    21    24    1
    27     8    11    1
    28    11    12    1
    29    11    13    1
    30    33    34   ar
    31    34    35   ar
    32    35    30   ar
    33     5     1   ar
    34    20    14   ar
    35    11     4    1
    36    27    28    1
    37    24    25    1
    38    24    26    1
@<TRIPOS>MOLECULE
*****
 35 38 0 0 0
SMALL
GASTEIGER

@<TRIPOS>ATOM
      1 C         140.5535  141.6064  163.3535 C.ar    1  UNL1        0.1318
      2 C         139.4849  140.5722  163.1576 C.ar    1  UNL1        0.1125
      3 N         138.9801  140.6882  161.7499 N.ar    1  UNL1       -0.2280
      4 C         139.7368  141.7941  161.0757 C.ar    1  UNL1        0.1375
      5 N         140.7092  142.3616  162.0668 N.ar    1  UNL1       -0.3006
      6 C         141.6108  143.4927  161.6696 C.3     1  UNL1        0.1299
      7 C         141.5399  144.0562  160.2814 C.3     1  UNL1        0.1182
      8 N         140.5675  143.4887  159.2903 N.am    1  UNL1       -0.2733
      9 C         140.4966  144.0523  157.9019 C.2     1  UNL1        0.2382
     10 O         139.5242  143.4848  156.9108 O.2     1  UNL1       -0.2735
     11 C         139.6659  142.3576  159.6874 C.3     1  UNL1        0.1109
     12 C         138.6127  141.2939  159.5908 C.3     1  UNL1        0.0276
     13 C         139.2293  142.5518  158.2655 C.3     1  UNL1        0.0276
     14 C         139.0053  139.5938  164.1885 C.ar    1  UNL1        0.0205
     15 C         138.2838  140.0835  165.4089 C.ar    1  UNL1        0.0039
     16 C         137.8042  139.1051  166.4398 C.ar    1  UNL1        0.0297
     17 C         138.0461  137.6369  166.2502 C.ar    1  UNL1        0.1401
     18 F         137.5664  136.6585  167.2810 F       1  UNL1       -0.2042
     19 C         138.7675  137.1472  165.0297 C.ar    1  UNL1        0.0297
     20 C         139.2471  138.1256  163.9988 C.ar    1  UNL1        0.0039
     21 C         141.3982  145.1834  157.5048 C.3     1  UNL1        0.1089
     22 C         140.3003  146.1620  157.7994 C.3     1  UNL1        0.0249
     23 C         142.4961  144.2048  157.2101 C.3     1  UNL1        0.0249
     24 N         142.2999  146.3145  157.1076 N.3     1  UNL1       -0.3164
     25 H         141.8003  147.1983  157.2064 H       1  UNL1        0.1192
     26 H         142.5889  146.1941  156.1368 H       1  UNL1        0.1192
     27 N         141.3302  141.8439  164.6146 N.pl3   1  UNL1       -0.2980
     28 H         141.3384  142.7379  165.0267 H       1  UNL1        0.1536
     29 C         144.3865  137.3449  167.1479 C.3     1  UNL1        0.0310
     30 C         143.6224  138.4696  166.5146 C.ar    1  UNL1       -0.0218
     31 C         142.5965  139.2210  167.3102 C.ar    1  UNL1       -0.0030
     32 C         141.8324  140.3457  166.6769 C.ar    1  UNL1        0.0143
     33 C         142.0942  140.7192  165.2479 C.ar    1  UNL1        0.0493
     34 C         143.1201  139.9678  164.4523 C.ar    1  UNL1        0.0143
     35 C         143.8842  138.8430  165.0856 C.ar    1  UNL1       -0.0030
@<TRIPOS>BOND
     1    29    30    1
     2    30    31   ar
     3    31    32   ar
     4    32    33   ar
     5    33    27    1
     6    27     1    1
     7     1     2   ar
     8     2    14    1
     9    14    15   ar
    10    15    16   ar
    11    16    17   ar
    12    17    18    1
    13    17    19   ar
    14    19    20   ar
    15     2     3   ar
    16     3     4   ar
    17     4     5   ar
    18     5     6    1
    19     6     7    1
    20     7     8    1
    21     8     9   am
    22     9    10    2
    23     9    21    1
    24    21    22    1
    25    21    23    1
    26    21    24    1
    27     8    11    1
    28    11    12    1
    29    11    13    1
    30    33    34   ar
    31    34    35   ar
    32    35    30   ar
    33     5     1   ar
    34    20    14   ar
    35    11     4    1
    36    27    28    1
    37    24    25    1
    38    24    26    1
@<TRIPOS>MOLECULE
*****
 35 38 0 0 0
SMALL
GASTEIGER

@<TRIPOS>ATOM
      1 C         141.1282  139.8396  161.4586 C.ar    1  UNL1        0.1318
      2 C         140.1335  140.9139  161.1326 C.ar    1  UNL1        0.1125
      3 N         139.9725  140.9594  159.6419 N.ar    1  UNL1       -0.2280
      4 C         140.8677  139.9133  159.0467 C.ar    1  UNL1        0.1375
      5 N         141.5820  139.2212  160.1695 N.ar    1  UNL1       -0.3006
      6 C         142.5534  138.1173  159.8731 C.3     1  UNL1        0.1299
      7 C         142.8104  137.7056  158.4538 C.3     1  UNL1        0.1182
      8 N         142.0960  138.3977  157.3310 N.am    1  UNL1       -0.2733
      9 C         142.3531  137.9859  155.9117 C.2     1  UNL1        0.2382
     10 O         141.6388  138.6781  154.7889 O.2     1  UNL1       -0.2735
     11 C         141.1247  139.5016  157.6275 C.3     1  UNL1        0.1109
     12 C         140.1216  140.5943  157.4041 C.3     1  UNL1        0.0276
     13 C         141.0334  139.4693  156.1306 C.3     1  UNL1        0.0276
     14 C         139.4243  141.7889  162.1232 C.ar    1  UNL1        0.0205
     15 C         140.1124  142.9984  162.6830 C.ar    1  UNL1        0.0039
     16 C         139.4032  143.8735  163.6736 C.ar    1  UNL1        0.0297
     17 C         138.0059  143.5391  164.1044 C.ar    1  UNL1        0.1401
     18 F         137.2967  144.4141  165.0950 F       1  UNL1       -0.2042
     19 C         137.3177  142.3295  163.5445 C.ar    1  UNL1        0.0297
     20 C         138.0269  141.4545  162.5539 C.ar    1  UNL1        0.0039
     21 C         143.3244  136.8821  155.6152 C.3     1  UNL1        0.1089
     22 C         142.2506  135.8675  155.8748 C.3     1  UNL1        0.0249
     23 C         144.3983  137.8967  155.3557 C.3     1  UNL1        0.0249
     24 N         144.2959  135.7782  155.3187 N.3     1  UNL1       -0.3164
     25 H         143.8276  134.8775  155.4179 H       1  UNL1        0.1192
     26 H         145.0777  135.8287  155.9719 H       1  UNL1        0.1192
     27 N         141.5885  139.4517  162.8326 N.pl3   1  UNL1       -0.2980
     28 H         142.5505  139.3668  163.0238 H       1  UNL1        0.1536
     29 C         137.5667  138.4177  167.1633 C.3     1  UNL1        0.0310
     30 C         138.5721  138.6762  166.0807 C.ar    1  UNL1       -0.0218
     31 C         139.4581  139.8844  166.1528 C.ar    1  UNL1       -0.0030
     32 C         140.4636  140.1429  165.0702 C.ar    1  UNL1        0.0143
     33 C         140.5831  139.1933  163.9152 C.ar    1  UNL1        0.0493
     34 C         139.6970  137.9850  163.8431 C.ar    1  UNL1        0.0143
     35 C         138.6915  137.7265  164.9258 C.ar    1  UNL1       -0.0030
@<TRIPOS>BOND
     1    29    30    1
     2    30    31   ar
     3    31    32   ar
     4    32    33   ar
     5    33    27    1
     6    27     1    1
     7     1     2   ar
     8     2    14    1
     9    14    15   ar
    10    15    16   ar
    11    16    17   ar
    12    17    18    1
    13    17    19   ar
    14    19    20   ar
    15     2     3   ar
    16     3     4   ar
    17     4     5   ar
    18     5     6    1
    19     6     7    1
    20     7     8    1
    21     8     9   am
    22     9    10    2
    23     9    21    1
    24    21    22    1
    25    21    23    1
    26    21    24    1
    27     8    11    1
    28    11    12    1
    29    11    13    1
    30    33    34   ar
    31    34    35   ar
    32    35    30   ar
    33     5     1   ar
    34    20    14   ar
    35    11     4    1
    36    27    28    1
    37    24    25    1
    38    24    26    1
@<TRIPOS>MOLECULE
*****
 35 38 0 0 0
SMALL
GASTEIGER

@<TRIPOS>ATOM
      1 C         140.3276  141.2437  163.8337 C.ar    1  UNL1        0.1318
      2 C         141.2140  140.2196  163.1892 C.ar    1  UNL1        0.1125
      3 N         141.9991  139.5393  164.2713 N.ar    1  UNL1       -0.2280
      4 C         141.5979  140.1430  165.5845 C.ar    1  UNL1        0.1375
      5 N         140.5648  141.1964  165.3141 N.ar    1  UNL1       -0.3006
      6 C         139.9736  141.9763  166.4508 C.3     1  UNL1        0.1299
      7 C         140.4155  141.7029  167.8579 C.3     1  UNL1        0.1182
      8 N         141.4486  140.6496  168.1283 N.am    1  UNL1       -0.2733
      9 C         141.8905  140.3762  169.5355 C.2     1  UNL1        0.2382
     10 O         142.9236  139.3228  169.8059 O.2     1  UNL1       -0.2735
     11 C         142.0398  139.8696  166.9916 C.3     1  UNL1        0.1109
     12 C         142.8866  138.8746  166.2547 C.3     1  UNL1        0.0276
     13 C         142.7758  139.2506  168.1428 C.3     1  UNL1        0.0276
     14 C         141.3003  139.9271  161.7205 C.ar    1  UNL1        0.0205
     15 C         140.3097  138.9999  161.0811 C.ar    1  UNL1        0.0039
     16 C         140.3959  138.7074  159.6124 C.ar    1  UNL1        0.0297
     17 C         141.4727  139.3421  158.7832 C.ar    1  UNL1        0.1401
     18 F         141.5589  139.0497  157.3145 F       1  UNL1       -0.2042
     19 C         142.4632  140.2694  159.4227 C.ar    1  UNL1        0.0297
     20 C         142.3770  140.5619  160.8913 C.ar    1  UNL1        0.0039
     21 C         141.2993  141.1562  170.6721 C.3     1  UNL1        0.1089
     22 C         142.3919  142.1754  170.5411 C.3     1  UNL1        0.0249
     23 C         140.2066  140.1369  170.8032 C.3     1  UNL1        0.0249
     24 N         140.7080  141.9361  171.8089 N.3     1  UNL1       -0.3164
     25 H         141.2745  142.7664  171.9825 H       1  UNL1        0.1192
     26 H         140.6904  141.3551  172.6471 H       1  UNL1        0.1192
     27 N         139.3717  142.1551  163.1227 N.pl3   1  UNL1       -0.2980
     28 H         138.4359  142.2174  163.4222 H       1  UNL1        0.1536
     29 C         141.2508  145.4215  158.4537 C.3     1  UNL1        0.0310
     30 C         140.7810  144.6049  159.6210 C.ar    1  UNL1       -0.0218
     31 C         141.3920  144.8115  160.9752 C.ar    1  UNL1       -0.0030
     32 C         140.9223  143.9949  162.1425 C.ar    1  UNL1        0.0143
     33 C         139.8415  142.9717  161.9556 C.ar    1  UNL1        0.0493
     34 C         139.2305  142.7651  160.6012 C.ar    1  UNL1        0.0143
     35 C         139.7002  143.5817  159.4340 C.ar    1  UNL1       -0.0030
@<TRIPOS>BOND
     1    29    30    1
     2    30    31   ar
     3    31    32   ar
     4    32    33   ar
     5    33    27    1
     6    27     1    1
     7     1     2   ar
     8     2    14    1
     9    14    15   ar
    10    15    16   ar
    11    16    17   ar
    12    17    18    1
    13    17    19   ar
    14    19    20   ar
    15     2     3   ar
    16     3     4   ar
    17     4     5   ar
    18     5     6    1
    19     6     7    1
    20     7     8    1
    21     8     9   am
    22     9    10    2
    23     9    21    1
    24    21    22    1
    25    21    23    1
    26    21    24    1
    27     8    11    1
    28    11    12    1
    29    11    13    1
    30    33    34   ar
    31    34    35   ar
    32    35    30   ar
    33     5     1   ar
    34    20    14   ar
    35    11     4    1
    36    27    28    1
    37    24    25    1
    38    24    26    1
@<TRIPOS>MOLECULE
*****
 35 38 0 0 0
SMALL
GASTEIGER

@<TRIPOS>ATOM
      1 C         140.9752  141.7069  163.7620 C.ar    1  UNL1        0.1318
      2 C         139.9356  140.7490  163.2603 C.ar    1  UNL1        0.1125
      3 N         139.2910  140.1000  164.4491 N.ar    1  UNL1       -0.2280
      4 C         139.9322  140.6568  165.6856 C.ar    1  UNL1        0.1375
      5 N         140.9731  141.6499  165.2609 N.ar    1  UNL1       -0.3006
      6 C         141.7845  142.3740  166.2940 C.3     1  UNL1        0.1299
      7 C         141.5551  142.1050  167.7517 C.3     1  UNL1        0.1182
      8 N         140.5142  141.1119  168.1764 N.am    1  UNL1       -0.2733
      9 C         140.2848  140.8430  169.6342 C.2     1  UNL1        0.2382
     10 O         139.2439  139.8499  170.0588 O.2     1  UNL1       -0.2735
     11 C         139.7028  140.3878  167.1433 C.3     1  UNL1        0.1109
     12 C         138.6894  139.4581  166.5443 C.3     1  UNL1        0.0276
     13 C         139.1214  139.7960  168.3930 C.3     1  UNL1        0.0276
     14 C         139.5996  140.4862  161.8222 C.ar    1  UNL1        0.0205
     15 C         138.7285  141.4465  161.0680 C.ar    1  UNL1        0.0039
     16 C         138.3925  141.1838  159.6299 C.ar    1  UNL1        0.0297
     17 C         138.9276  139.9607  158.9461 C.ar    1  UNL1        0.1401
     18 F         138.5916  139.6979  157.5080 F       1  UNL1       -0.2042
     19 C         139.7987  139.0003  159.7003 C.ar    1  UNL1        0.0297
     20 C         140.1347  139.2631  161.1384 C.ar    1  UNL1        0.0039
     21 C         141.0962  141.5671  170.6672 C.3     1  UNL1        0.1089
     22 C         140.0807  142.6708  170.6912 C.3     1  UNL1        0.0249
     23 C         142.1117  140.4634  170.6432 C.3     1  UNL1        0.0249
     24 N         141.9077  142.2912  171.7003 N.3     1  UNL1       -0.3164
     25 H         141.4406  143.1630  171.9498 H       1  UNL1        0.1192
     26 H         142.8328  142.4970  171.3231 H       1  UNL1        0.1192
     27 N         141.8613  142.5702  162.9138 N.pl3   1  UNL1       -0.2980
     28 H         142.0848  143.4833  163.2061 H       1  UNL1        0.1536
     29 C         144.0439  140.4585  157.7392 C.3     1  UNL1        0.0310
     30 C         143.4982  140.9864  159.0328 C.ar    1  UNL1       -0.0218
     31 C         142.5862  142.1773  159.0318 C.ar    1  UNL1       -0.0030
     32 C         142.0406  142.7052  160.3254 C.ar    1  UNL1        0.0143
     33 C         142.4069  142.0423  161.6202 C.ar    1  UNL1        0.0493
     34 C         143.3190  140.8514  161.6211 C.ar    1  UNL1        0.0143
     35 C         143.8646  140.3234  160.3275 C.ar    1  UNL1       -0.0030
@<TRIPOS>BOND
     1    29    30    1
     2    30    31   ar
     3    31    32   ar
     4    32    33   ar
     5    33    27    1
     6    27     1    1
     7     1     2   ar
     8     2    14    1
     9    14    15   ar
    10    15    16   ar
    11    16    17   ar
    12    17    18    1
    13    17    19   ar
    14    19    20   ar
    15     2     3   ar
    16     3     4   ar
    17     4     5   ar
    18     5     6    1
    19     6     7    1
    20     7     8    1
    21     8     9   am
    22     9    10    2
    23     9    21    1
    24    21    22    1
    25    21    23    1
    26    21    24    1
    27     8    11    1
    28    11    12    1
    29    11    13    1
    30    33    34   ar
    31    34    35   ar
    32    35    30   ar
    33     5     1   ar
    34    20    14   ar
    35    11     4    1
    36    27    28    1
    37    24    25    1
    38    24    26    1
@<TRIPOS>MOLECULE
*****
 35 38 0 0 0
SMALL
GASTEIGER

@<TRIPOS>ATOM
      1 C         142.1128  139.7094  163.4118 C.ar    1  UNL1        0.1318
      2 C         140.6719  139.7523  162.9971 C.ar    1  UNL1        0.1125
      3 N         139.8334  139.8055  164.2398 N.ar    1  UNL1       -0.2280
      4 C         140.7561  139.7954  165.4224 C.ar    1  UNL1        0.1375
      5 N         142.1648  139.7360  164.9106 N.ar    1  UNL1       -0.3006
      6 C         143.3130  139.7139  165.8756 C.3     1  UNL1        0.1299
      7 C         143.0524  139.7511  167.3523 C.3     1  UNL1        0.1182
      8 N         141.6436  139.8105  167.8640 N.am    1  UNL1       -0.2733
      9 C         141.3831  139.8477  169.3408 C.2     1  UNL1        0.2382
     10 O         139.9743  139.9071  169.8525 O.2     1  UNL1       -0.2735
     11 C         140.4955  139.8326  166.8991 C.3     1  UNL1        0.1109
     12 C         139.0869  139.8725  166.3849 C.3     1  UNL1        0.0276
     13 C         139.7457  139.8837  168.1973 C.3     1  UNL1        0.0276
     14 C         140.1594  139.7436  161.5874 C.ar    1  UNL1        0.0205
     15 C         140.0387  138.4479  160.8413 C.ar    1  UNL1        0.0039
     16 C         139.5262  138.4392  159.4316 C.ar    1  UNL1        0.0297
     17 C         139.1345  139.7261  158.7680 C.ar    1  UNL1        0.1401
     18 F         138.6221  139.7174  157.3582 F       1  UNL1       -0.2042
     19 C         139.2553  141.0217  159.5141 C.ar    1  UNL1        0.0297
     20 C         139.7677  141.0305  160.9238 C.ar    1  UNL1        0.0039
     21 C         142.5312  139.8256  170.3058 C.3     1  UNL1        0.1089
     22 C         142.4354  141.3151  170.4540 C.3     1  UNL1        0.0249
     23 C         142.6271  138.3361  170.1575 C.3     1  UNL1        0.0249
     24 N         143.6795  139.8034  171.2708 N.3     1  UNL1       -0.3164
     25 H         143.8783  140.7534  171.5846 H       1  UNL1        0.1192
     26 H         144.5037  139.4181  170.8097 H       1  UNL1        0.1192
     27 N         143.2943  139.6502  162.4895 N.pl3   1  UNL1       -0.2980
     28 H         144.0514  139.0560  162.6969 H       1  UNL1        0.1536
     29 C         143.4062  143.0341  157.5361 C.3     1  UNL1        0.0310
     30 C         143.3782  142.1882  158.7745 C.ar    1  UNL1       -0.0218
     31 C         143.3273  142.8377  160.1255 C.ar    1  UNL1       -0.0030
     32 C         143.2993  141.9918  161.3639 C.ar    1  UNL1        0.0143
     33 C         143.3222  140.4962  161.2512 C.ar    1  UNL1        0.0493
     34 C         143.3732  139.8466  159.9000 C.ar    1  UNL1        0.0143
     35 C         143.4012  140.6925  158.6617 C.ar    1  UNL1       -0.0030
@<TRIPOS>BOND
     1    29    30    1
     2    30    31   ar
     3    31    32   ar
     4    32    33   ar
     5    33    27    1
     6    27     1    1
     7     1     2   ar
     8     2    14    1
     9    14    15   ar
    10    15    16   ar
    11    16    17   ar
    12    17    18    1
    13    17    19   ar
    14    19    20   ar
    15     2     3   ar
    16     3     4   ar
    17     4     5   ar
    18     5     6    1
    19     6     7    1
    20     7     8    1
    21     8     9   am
    22     9    10    2
    23     9    21    1
    24    21    22    1
    25    21    23    1
    26    21    24    1
    27     8    11    1
    28    11    12    1
    29    11    13    1
    30    33    34   ar
    31    34    35   ar
    32    35    30   ar
    33     5     1   ar
    34    20    14   ar
    35    11     4    1
    36    27    28    1
    37    24    25    1
    38    24    26    1
@<TRIPOS>MOLECULE
*****
 35 38 0 0 0
SMALL
GASTEIGER

@<TRIPOS>ATOM
      1 C         140.8754  141.0652  163.0820 C.ar    1  UNL1        0.1318
      2 C         139.5686  140.3290  163.0644 C.ar    1  UNL1        0.1125
      3 N         138.8766  140.6441  161.7714 N.ar    1  UNL1       -0.2280
      4 C         139.7558  141.5749  160.9899 C.ar    1  UNL1        0.1375
      5 N         140.9911  141.8352  161.8000 N.ar    1  UNL1       -0.3006
      6 C         142.0617  142.7396  161.2655 C.3     1  UNL1        0.1299
      7 C         141.8970  143.3839  159.9210 C.3     1  UNL1        0.1182
      8 N         140.6616  143.1237  159.1109 N.am    1  UNL1       -0.2733
      9 C         140.4969  143.7680  157.7664 C.2     1  UNL1        0.2382
     10 O         139.2615  143.5077  156.9563 O.2     1  UNL1       -0.2735
     11 C         139.5910  142.2192  159.6454 C.3     1  UNL1        0.1109
     12 C         138.3085  141.4451  159.7222 C.3     1  UNL1        0.0276
     13 C         138.9808  142.5946  158.3275 C.3     1  UNL1        0.0276
     14 C         139.0456  139.4349  164.1492 C.ar    1  UNL1        0.0205
     15 C         139.2812  137.9551  164.0802 C.ar    1  UNL1        0.0039
     16 C         138.7582  137.0609  165.1650 C.ar    1  UNL1        0.0297
     17 C         137.9996  137.6465  166.3190 C.ar    1  UNL1        0.1401
     18 F         137.4766  136.7523  167.4038 F       1  UNL1       -0.2042
     19 C         137.7640  139.1263  166.3880 C.ar    1  UNL1        0.0297
     20 C         138.2870  140.0204  165.3032 C.ar    1  UNL1        0.0039
     21 C         141.5675  144.6724  157.2319 C.3     1  UNL1        0.1089
     22 C         142.2491  143.4937  156.6026 C.3     1  UNL1        0.0249
     23 C         140.8859  145.8511  157.8612 C.3     1  UNL1        0.0249
     24 N         142.6381  145.5770  156.6974 N.3     1  UNL1       -0.3164
     25 H         143.3178  145.0263  156.1728 H       1  UNL1        0.1192
     26 H         143.1062  146.0453  157.4733 H       1  UNL1        0.1192
     27 N         141.8887  141.0363  164.1877 N.pl3   1  UNL1       -0.2980
     28 H         142.8352  140.8581  163.9834 H       1  UNL1        0.1536
     29 C         140.1742  142.0074  169.8549 C.3     1  UNL1        0.0310
     30 C         140.6028  141.7647  168.4381 C.ar    1  UNL1       -0.0218
     31 C         140.4046  142.8305  167.4014 C.ar    1  UNL1       -0.0030
     32 C         140.8332  142.5878  165.9846 C.ar    1  UNL1        0.0143
     33 C         141.4601  141.2791  165.6044 C.ar    1  UNL1        0.0493
     34 C         141.6583  140.2133  166.6411 C.ar    1  UNL1        0.0143
     35 C         141.2297  140.4560  168.0579 C.ar    1  UNL1       -0.0030
@<TRIPOS>BOND
     1    29    30    1
     2    30    31   ar
     3    31    32   ar
     4    32    33   ar
     5    33    27    1
     6    27     1    1
     7     1     2   ar
     8     2    14    1
     9    14    15   ar
    10    15    16   ar
    11    16    17   ar
    12    17    18    1
    13    17    19   ar
    14    19    20   ar
    15     2     3   ar
    16     3     4   ar
    17     4     5   ar
    18     5     6    1
    19     6     7    1
    20     7     8    1
    21     8     9   am
    22     9    10    2
    23     9    21    1
    24    21    22    1
    25    21    23    1
    26    21    24    1
    27     8    11    1
    28    11    12    1
    29    11    13    1
    30    33    34   ar
    31    34    35   ar
    32    35    30   ar
    33     5     1   ar
    34    20    14   ar
    35    11     4    1
    36    27    28    1
    37    24    25    1
    38    24    26    1
