@<TRIPOS>MOLECULE
*****
 34 38 0 0 0
SMALL
GASTEIGER

@<TRIPOS>ATOM
      1 N         140.8710  144.4772  158.3757 N.ar    1  UNL1       -0.2900
      2 C         140.4989  144.7249  159.8075 C.ar    1  UNL1        0.0891
      3 C         141.3997  144.2511  160.9093 C.ar    1  UNL1        0.1098
      4 C         142.6726  143.5294  160.5793 C.ar    1  UNL1        0.2043
      5 O         143.5734  143.0555  161.6811 O.2     1  UNL1       -0.2863
      6 C         143.0447  143.2816  159.1474 C.ar    1  UNL1        0.0736
      7 C         144.3176  142.5599  158.8174 C.ar    1  UNL1        0.0078
      8 C         144.6897  142.3121  157.3856 C.ar    1  UNL1        0.0209
      9 C         143.7889  142.7860  156.2838 C.ar    1  UNL1        0.1005
     10 N         142.5160  143.5077  156.6138 N.ar    1  UNL1       -0.2263
     11 C         142.1439  143.7555  158.0456 C.ar    1  UNL1        0.1507
     12 C         139.0617  146.8728  155.7800 C.ar    1  UNL1        0.0029
     13 C         138.1685  145.8988  155.0702 C.ar    1  UNL1        0.0001
     14 C         138.1762  144.4510  155.4623 C.ar    1  UNL1        0.0015
     15 C         139.0770  143.9771  156.5642 C.ar    1  UNL1        0.0176
     16 C         139.9702  144.9510  157.2739 C.ar    1  UNL1        0.0654
     17 C         139.9625  146.3989  156.8818 C.ar    1  UNL1        0.0176
     18 C         139.0387  151.2162  154.6036 C.ar    1  UNL1        0.1863
     19 C         139.6679  150.1977  153.6998 C.ar    1  UNL1        0.0379
     20 C         139.6756  148.7499  154.0920 C.ar    1  UNL1        0.0045
     21 C         139.0540  148.3206  155.3878 C.ar    1  UNL1        0.0193
     22 C         138.4249  149.3391  156.2916 C.ar    1  UNL1        0.1003
     23 N         138.4172  150.7868  155.8995 N.ar    1  UNL1       -0.2257
     24 C         139.0234  154.1119  153.8193 C.3     1  UNL1        0.1834
     25 S         139.0311  152.6640  154.2115 S.O2    1  UNL1        0.0268
     26 O         138.9079  153.0542  155.6545 O.2     1  UNL1       -0.1671
     27 O         139.1542  152.2738  152.7684 O.2     1  UNL1       -0.1671
     28 C         141.0276  144.4989  162.3411 C.2     1  UNL1        0.2504
     29 O         141.8662  145.4107  163.1870 O.2     1  UNL1       -0.2700
     30 N         139.8170  143.8350  162.9271 N.am    1  UNL1       -0.3024
     31 H         139.2665  143.2366  162.3720 H       1  UNL1        0.1497
     32 C         139.4449  144.0828  164.3589 C.3     1  UNL1        0.0720
     33 C         139.5696  143.7344  165.8125 C.3     1  UNL1        0.0213
     34 C         138.6757  144.8606  165.3853 C.3     1  UNL1        0.0213
@<TRIPOS>BOND
     1    24    25    1
     2    25    26    2
     3    25    27    2
     4    25    18    1
     5    18    19   ar
     6    19    20   ar
     7    20    21   ar
     8    21    12    1
     9    12    13   ar
    10    13    14   ar
    11    14    15   ar
    12    15    16   ar
    13    16     1    1
    14     1     2   ar
    15     2     3   ar
    16     3    28    1
    17    28    29    2
    18    28    30   am
    19    30    32    1
    20    32    33    1
    21    33    34    1
    22     3     4   ar
    23     4     5    2
    24     4     6   ar
    25     6     7   ar
    26     7     8   ar
    27     8     9   ar
    28     9    10   ar
    29    10    11   ar
    30    16    17   ar
    31    21    22   ar
    32    22    23   ar
    33    23    18   ar
    34    17    12   ar
    35    11     1   ar
    36    34    32    1
    37    11     6   ar
    38    30    31    1
@<TRIPOS>MOLECULE
*****
 34 38 0 0 0
SMALL
GASTEIGER

@<TRIPOS>ATOM
      1 N         142.5809  142.2513  160.6491 N.ar    1  UNL1       -0.2900
      2 C         142.2989  143.5544  159.9617 C.ar    1  UNL1        0.0891
      3 C         141.5572  143.5695  158.6581 C.ar    1  UNL1        0.1098
      4 C         141.0973  142.2816  158.0418 C.ar    1  UNL1        0.2043
      5 O         140.3556  142.2968  156.7381 O.2     1  UNL1       -0.2863
      6 C         141.3793  140.9785  158.7292 C.ar    1  UNL1        0.0736
      7 C         140.9194  139.6906  158.1129 C.ar    1  UNL1        0.0078
      8 C         141.2014  138.3876  158.8003 C.ar    1  UNL1        0.0209
      9 C         141.9431  138.3724  160.1040 C.ar    1  UNL1        0.1005
     10 N         142.4030  139.6603  160.7202 N.ar    1  UNL1       -0.2263
     11 C         142.1210  140.9633  160.0328 C.ar    1  UNL1        0.1507
     12 C         143.3116  142.3334  164.5490 C.ar    1  UNL1        0.0029
     13 C         144.8062  142.2059  164.5601 C.ar    1  UNL1        0.0001
     14 C         145.5589  142.0935  163.2676 C.ar    1  UNL1        0.0015
     15 C         144.8172  142.1087  161.9639 C.ar    1  UNL1        0.0176
     16 C         143.3227  142.2362  161.9528 C.ar    1  UNL1        0.0654
     17 C         142.5699  142.3485  163.2454 C.ar    1  UNL1        0.0176
     18 C         141.0535  142.6704  168.4268 C.ar    1  UNL1        0.1863
     19 C         142.5123  142.3215  168.4363 C.ar    1  UNL1        0.0379
     20 C         143.2650  142.2091  167.1437 C.ar    1  UNL1        0.0045
     21 C         142.5589  142.4457  165.8416 C.ar    1  UNL1        0.0193
     22 C         141.1001  142.7946  165.8321 C.ar    1  UNL1        0.1003
     23 N         140.3474  142.9070  167.1246 N.ar    1  UNL1       -0.2257
     24 C         139.5479  142.8950  171.0120 C.3     1  UNL1        0.1834
     25 S         140.3007  142.7827  169.7194 S.O2    1  UNL1        0.0268
     26 O         140.9103  144.1325  169.9570 O.2     1  UNL1       -0.1671
     27 O         139.6912  141.4330  169.4817 O.2     1  UNL1       -0.1671
     28 C         141.2752  144.8727  157.9707 C.2     1  UNL1        0.2504
     29 O         142.2507  146.0066  158.0836 O.2     1  UNL1       -0.2700
     30 N         140.0179  145.0418  157.1704 N.am    1  UNL1       -0.3024
     31 H         139.3777  144.2976  157.0962 H       1  UNL1        0.1497
     32 C         139.7361  146.3449  156.4830 C.3     1  UNL1        0.0720
     33 C         139.0600  147.6837  156.4636 C.3     1  UNL1        0.0213
     34 C         139.9240  147.2631  155.3119 C.3     1  UNL1        0.0213
@<TRIPOS>BOND
     1    24    25    1
     2    25    26    2
     3    25    27    2
     4    25    18    1
     5    18    19   ar
     6    19    20   ar
     7    20    21   ar
     8    21    12    1
     9    12    13   ar
    10    13    14   ar
    11    14    15   ar
    12    15    16   ar
    13    16     1    1
    14     1     2   ar
    15     2     3   ar
    16     3    28    1
    17    28    29    2
    18    28    30   am
    19    30    32    1
    20    32    33    1
    21    33    34    1
    22     3     4   ar
    23     4     5    2
    24     4     6   ar
    25     6     7   ar
    26     7     8   ar
    27     8     9   ar
    28     9    10   ar
    29    10    11   ar
    30    16    17   ar
    31    21    22   ar
    32    22    23   ar
    33    23    18   ar
    34    17    12   ar
    35    11     1   ar
    36    34    32    1
    37    11     6   ar
    38    30    31    1
@<TRIPOS>MOLECULE
*****
 34 38 0 0 0
SMALL
GASTEIGER

@<TRIPOS>ATOM
      1 N         141.3064  144.1392  157.6952 N.ar    1  UNL1       -0.2900
      2 C         142.4771  143.4476  157.0618 C.ar    1  UNL1        0.0891
      3 C         143.5693  142.8829  157.9209 C.ar    1  UNL1        0.1098
      4 C         143.4908  143.0097  159.4135 C.ar    1  UNL1        0.2043
      5 O         144.5830  142.4449  160.2726 O.2     1  UNL1       -0.2863
      6 C         142.3201  143.7012  160.0469 C.ar    1  UNL1        0.0736
      7 C         142.2416  143.8280  161.5395 C.ar    1  UNL1        0.0078
      8 C         141.0709  144.5195  162.1729 C.ar    1  UNL1        0.0209
      9 C         139.9787  145.0843  161.3137 C.ar    1  UNL1        0.1005
     10 N         140.0572  144.9575  159.8212 N.ar    1  UNL1       -0.2263
     11 C         141.2279  144.2660  159.1878 C.ar    1  UNL1        0.1507
     12 C         139.0977  146.7352  155.6623 C.ar    1  UNL1        0.0029
     13 C         138.0298  145.8334  155.1177 C.ar    1  UNL1        0.0001
     14 C         138.0542  144.3670  155.4323 C.ar    1  UNL1        0.0015
     15 C         139.1464  143.8023  156.2914 C.ar    1  UNL1        0.0176
     16 C         140.2142  144.7039  156.8360 C.ar    1  UNL1        0.0654
     17 C         140.1899  146.1704  156.5215 C.ar    1  UNL1        0.0176
     18 C         139.0247  151.1345  154.7186 C.ar    1  UNL1        0.1863
     19 C         139.6562  150.1716  153.7573 C.ar    1  UNL1        0.0379
     20 C         139.6805  148.7051  154.0719 C.ar    1  UNL1        0.0045
     21 C         139.0734  148.2016  155.3477 C.ar    1  UNL1        0.0193
     22 C         138.4419  149.1645  156.3090 C.ar    1  UNL1        0.1003
     23 N         138.4176  150.6309  155.9945 N.ar    1  UNL1       -0.2257
     24 C         138.9760  154.0674  154.0894 C.3     1  UNL1        0.1834
     25 S         139.0004  152.6009  154.4040 S.O2    1  UNL1        0.0268
     26 O         138.8641  152.9120  155.8650 O.2     1  UNL1       -0.1671
     27 O         139.1366  152.2897  152.9430 O.2     1  UNL1       -0.1671
     28 C         144.7401  142.1913  157.2875 C.2     1  UNL1        0.2504
     29 O         144.9194  140.7119  157.4581 O.2     1  UNL1       -0.2700
     30 N         145.7314  142.9792  156.4835 N.am    1  UNL1       -0.3024
     31 H         145.6137  143.9502  156.3715 H       1  UNL1        0.1497
     32 C         146.9020  142.2877  155.8501 C.3     1  UNL1        0.0720
     33 C         148.3579  141.9269  155.8585 C.3     1  UNL1        0.0213
     34 C         147.4738  141.4506  154.7444 C.3     1  UNL1        0.0213
@<TRIPOS>BOND
     1    24    25    1
     2    25    26    2
     3    25    27    2
     4    25    18    1
     5    18    19   ar
     6    19    20   ar
     7    20    21   ar
     8    21    12    1
     9    12    13   ar
    10    13    14   ar
    11    14    15   ar
    12    15    16   ar
    13    16     1    1
    14     1     2   ar
    15     2     3   ar
    16     3    28    1
    17    28    29    2
    18    28    30   am
    19    30    32    1
    20    32    33    1
    21    33    34    1
    22     3     4   ar
    23     4     5    2
    24     4     6   ar
    25     6     7   ar
    26     7     8   ar
    27     8     9   ar
    28     9    10   ar
    29    10    11   ar
    30    16    17   ar
    31    21    22   ar
    32    22    23   ar
    33    23    18   ar
    34    17    12   ar
    35    11     1   ar
    36    34    32    1
    37    11     6   ar
    38    30    31    1
@<TRIPOS>MOLECULE
*****
 34 38 0 0 0
SMALL
GASTEIGER

@<TRIPOS>ATOM
      1 N         138.8555  140.9357  160.6432 N.ar    1  UNL1       -0.2900
      2 C         138.1033  140.5401  159.4072 C.ar    1  UNL1        0.0891
      3 C         138.0832  141.4529  158.2171 C.ar    1  UNL1        0.1098
      4 C         138.8153  142.7613  158.2629 C.ar    1  UNL1        0.2043
      5 O         138.7952  143.6741  157.0728 O.2     1  UNL1       -0.2863
      6 C         139.5675  143.1570  159.4990 C.ar    1  UNL1        0.0736
      7 C         140.2996  144.4654  159.5448 C.ar    1  UNL1        0.0078
      8 C         141.0517  144.8610  160.7808 C.ar    1  UNL1        0.0209
      9 C         141.0718  143.9482  161.9709 C.ar    1  UNL1        0.1005
     10 N         140.3398  142.6398  161.9251 N.ar    1  UNL1       -0.2263
     11 C         139.5876  142.2442  160.6891 C.ar    1  UNL1        0.1507
     12 C         139.1792  139.6637  164.3885 C.ar    1  UNL1        0.0029
     13 C         138.9158  138.1974  164.2136 C.ar    1  UNL1        0.0001
     14 C         138.6323  137.6439  162.8486 C.ar    1  UNL1        0.0015
     15 C         138.6122  138.5567  161.6585 C.ar    1  UNL1        0.0176
     16 C         138.8756  140.0229  161.8333 C.ar    1  UNL1        0.0654
     17 C         139.1591  140.5765  163.1984 C.ar    1  UNL1        0.0176
     18 C         140.0296  141.3242  168.4836 C.ar    1  UNL1        0.1863
     19 C         139.3881  139.9760  168.3393 C.ar    1  UNL1        0.0379
     20 C         139.1046  139.4225  166.9742 C.ar    1  UNL1        0.0045
     21 C         139.4627  140.2172  165.7535 C.ar    1  UNL1        0.0193
     22 C         140.1042  141.5654  165.8978 C.ar    1  UNL1        0.1003
     23 N         140.3877  142.1189  167.2628 N.ar    1  UNL1       -0.2257
     24 C         140.5966  142.4312  171.2136 C.3     1  UNL1        0.1834
     25 S         140.3131  141.8777  169.8486 S.O2    1  UNL1        0.0268
     26 O         138.9811  141.3806  170.3267 O.2     1  UNL1       -0.1671
     27 O         141.6451  142.3747  169.3704 O.2     1  UNL1       -0.1671
     28 C         137.3310  141.0572  156.9811 C.2     1  UNL1        0.2504
     29 O         137.6660  139.7757  156.2772 O.2     1  UNL1       -0.2700
     30 N         136.2438  141.9431  156.4489 N.am    1  UNL1       -0.3024
     31 H         136.0239  142.7842  156.9109 H       1  UNL1        0.1497
     32 C         135.4916  141.5474  155.2130 C.3     1  UNL1        0.0720
     33 C         134.3965  140.7621  154.5544 C.3     1  UNL1        0.0213
     34 C         135.2840  141.6474  153.7308 C.3     1  UNL1        0.0213
@<TRIPOS>BOND
     1    24    25    1
     2    25    26    2
     3    25    27    2
     4    25    18    1
     5    18    19   ar
     6    19    20   ar
     7    20    21   ar
     8    21    12    1
     9    12    13   ar
    10    13    14   ar
    11    14    15   ar
    12    15    16   ar
    13    16     1    1
    14     1     2   ar
    15     2     3   ar
    16     3    28    1
    17    28    29    2
    18    28    30   am
    19    30    32    1
    20    32    33    1
    21    33    34    1
    22     3     4   ar
    23     4     5    2
    24     4     6   ar
    25     6     7   ar
    26     7     8   ar
    27     8     9   ar
    28     9    10   ar
    29    10    11   ar
    30    16    17   ar
    31    21    22   ar
    32    22    23   ar
    33    23    18   ar
    34    17    12   ar
    35    11     1   ar
    36    34    32    1
    37    11     6   ar
    38    30    31    1
@<TRIPOS>MOLECULE
*****
 34 38 0 0 0
SMALL
GASTEIGER

@<TRIPOS>ATOM
      1 N         142.2073  141.0471  160.9542 N.ar    1  UNL1       -0.2900
      2 C         143.2792  140.8163  159.9306 C.ar    1  UNL1        0.0891
      3 C         143.6233  141.8964  158.9483 C.ar    1  UNL1        0.1098
      4 C         142.8956  143.2074  158.9896 C.ar    1  UNL1        0.2043
      5 O         143.2398  144.2875  158.0074 O.2     1  UNL1       -0.2863
      6 C         141.8237  143.4383  160.0133 C.ar    1  UNL1        0.0736
      7 C         141.0960  144.7493  160.0546 C.ar    1  UNL1        0.0078
      8 C         140.0241  144.9801  161.0782 C.ar    1  UNL1        0.0209
      9 C         139.6800  143.9000  162.0605 C.ar    1  UNL1        0.1005
     10 N         140.4077  142.5890  162.0192 N.ar    1  UNL1       -0.2263
     11 C         141.4795  142.3582  160.9956 C.ar    1  UNL1        0.1507
     12 C         141.4402  139.2022  164.3832 C.ar    1  UNL1        0.0029
     13 C         141.1749  137.8068  163.9011 C.ar    1  UNL1        0.0001
     14 C         141.2537  137.4915  162.4368 C.ar    1  UNL1        0.0015
     15 C         141.5978  138.5716  161.4545 C.ar    1  UNL1        0.0176
     16 C         141.8632  139.9670  161.9365 C.ar    1  UNL1        0.0654
     17 C         141.7844  140.2823  163.4009 C.ar    1  UNL1        0.0176
     18 C         141.2038  140.1480  168.7763 C.ar    1  UNL1        0.1863
     19 C         139.9687  140.2132  167.9276 C.ar    1  UNL1        0.0379
     20 C         140.0476  139.8979  166.4632 C.ar    1  UNL1        0.0045
     21 C         141.3614  139.5175  165.8476 C.ar    1  UNL1        0.0193
     22 C         142.5965  139.4523  166.6963 C.ar    1  UNL1        0.1003
     23 N         142.5177  139.7676  168.1607 N.ar    1  UNL1       -0.2257
     24 C         141.0463  140.7786  171.7051 C.3     1  UNL1        0.1834
     25 S         141.1250  140.4633  170.2407 S.O2    1  UNL1        0.0268
     26 O         139.8875  139.6235  170.3549 O.2     1  UNL1       -0.1671
     27 O         142.3625  141.3032  170.1264 O.2     1  UNL1       -0.1671
     28 C         144.6952  141.6655  157.9247 C.2     1  UNL1        0.2504
     29 O         144.8904  140.2987  157.3383 O.2     1  UNL1       -0.2700
     30 N         145.5719  142.8013  157.4875 N.am    1  UNL1       -0.3024
     31 H         145.4439  143.6984  157.8724 H       1  UNL1        0.1497
     32 C         146.6438  142.5704  156.4639 C.3     1  UNL1        0.0720
     33 C         148.0374  142.1373  156.1174 C.3     1  UNL1        0.0213
     34 C         147.1066  142.6035  155.0375 C.3     1  UNL1        0.0213
@<TRIPOS>BOND
     1    24    25    1
     2    25    26    2
     3    25    27    2
     4    25    18    1
     5    18    19   ar
     6    19    20   ar
     7    20    21   ar
     8    21    12    1
     9    12    13   ar
    10    13    14   ar
    11    14    15   ar
    12    15    16   ar
    13    16     1    1
    14     1     2   ar
    15     2     3   ar
    16     3    28    1
    17    28    29    2
    18    28    30   am
    19    30    32    1
    20    32    33    1
    21    33    34    1
    22     3     4   ar
    23     4     5    2
    24     4     6   ar
    25     6     7   ar
    26     7     8   ar
    27     8     9   ar
    28     9    10   ar
    29    10    11   ar
    30    16    17   ar
    31    21    22   ar
    32    22    23   ar
    33    23    18   ar
    34    17    12   ar
    35    11     1   ar
    36    34    32    1
    37    11     6   ar
    38    30    31    1
@<TRIPOS>MOLECULE
*****
 34 38 0 0 0
SMALL
GASTEIGER

@<TRIPOS>ATOM
      1 N         139.8881  141.5346  159.7964 N.ar    1  UNL1       -0.2900
      2 C         138.6620  141.8648  158.9980 C.ar    1  UNL1        0.0891
      3 C         138.2719  141.0050  157.8324 C.ar    1  UNL1        0.1098
      4 C         139.1079  139.8150  157.4653 C.ar    1  UNL1        0.2043
      5 O         138.7178  138.9551  156.2997 O.2     1  UNL1       -0.2863
      6 C         140.3341  139.4847  158.2637 C.ar    1  UNL1        0.0736
      7 C         141.1701  138.2947  157.8966 C.ar    1  UNL1        0.0078
      8 C         142.3963  137.9645  158.6950 C.ar    1  UNL1        0.0209
      9 C         142.7864  138.8243  159.8605 C.ar    1  UNL1        0.1005
     10 N         141.9503  140.0143  160.2277 N.ar    1  UNL1       -0.2263
     11 C         140.7242  140.3445  159.4293 C.ar    1  UNL1        0.1507
     12 C         140.5290  142.7301  163.5260 C.ar    1  UNL1        0.0029
     13 C         141.0584  144.1141  163.2930 C.ar    1  UNL1        0.0001
     14 C         141.1977  144.6383  161.8945 C.ar    1  UNL1        0.0015
     15 C         140.8076  143.7784  160.7290 C.ar    1  UNL1        0.0176
     16 C         140.2782  142.3944  160.9619 C.ar    1  UNL1        0.0654
     17 C         140.1389  141.8702  162.3605 C.ar    1  UNL1        0.0176
     18 C         140.1111  141.1576  167.7216 C.ar    1  UNL1        0.1863
     19 C         140.7734  142.4815  167.4793 C.ar    1  UNL1        0.0379
     20 C         140.9127  143.0056  166.0807 C.ar    1  UNL1        0.0045
     21 C         140.3897  142.2059  164.9245 C.ar    1  UNL1        0.0193
     22 C         139.7273  140.8821  165.1668 C.ar    1  UNL1        0.1003
     23 N         139.5880  140.3579  166.5653 N.ar    1  UNL1       -0.2257
     24 C         139.8325  140.1093  170.5186 C.3     1  UNL1        0.1834
     25 S         139.9718  140.6335  169.1201 S.O2    1  UNL1        0.0268
     26 O         140.9884  141.6291  169.5945 O.2     1  UNL1       -0.1671
     27 O         138.9552  139.6378  168.6457 O.2     1  UNL1       -0.1671
     28 C         137.0457  141.3352  157.0340 C.2     1  UNL1        0.2504
     29 O         136.8958  142.6944  156.4174 O.2     1  UNL1       -0.2700
     30 N         135.9694  140.3064  156.8522 N.am    1  UNL1       -0.3024
     31 H         136.0678  139.4143  157.2569 H       1  UNL1        0.1497
     32 C         134.7433  140.6366  156.0538 C.3     1  UNL1        0.0720
     33 C         133.2495  140.6737  155.9226 C.3     1  UNL1        0.0213
     34 C         134.1134  141.1717  154.8020 C.3     1  UNL1        0.0213
@<TRIPOS>BOND
     1    24    25    1
     2    25    26    2
     3    25    27    2
     4    25    18    1
     5    18    19   ar
     6    19    20   ar
     7    20    21   ar
     8    21    12    1
     9    12    13   ar
    10    13    14   ar
    11    14    15   ar
    12    15    16   ar
    13    16     1    1
    14     1     2   ar
    15     2     3   ar
    16     3    28    1
    17    28    29    2
    18    28    30   am
    19    30    32    1
    20    32    33    1
    21    33    34    1
    22     3     4   ar
    23     4     5    2
    24     4     6   ar
    25     6     7   ar
    26     7     8   ar
    27     8     9   ar
    28     9    10   ar
    29    10    11   ar
    30    16    17   ar
    31    21    22   ar
    32    22    23   ar
    33    23    18   ar
    34    17    12   ar
    35    11     1   ar
    36    34    32    1
    37    11     6   ar
    38    30    31    1
@<TRIPOS>MOLECULE
*****
 34 38 0 0 0
SMALL
GASTEIGER

@<TRIPOS>ATOM
      1 N         143.6417  139.4769  156.5173 N.ar    1  UNL1       -0.2900
      2 C         144.8105  139.8275  155.6449 C.ar    1  UNL1        0.0891
      3 C         145.7302  140.9457  156.0368 C.ar    1  UNL1        0.1098
      4 C         145.4813  141.7134  157.3012 C.ar    1  UNL1        0.2043
      5 O         146.4010  142.8316  157.6931 O.2     1  UNL1       -0.2863
      6 C         144.3125  141.3629  158.1737 C.ar    1  UNL1        0.0736
      7 C         144.0635  142.1306  159.4380 C.ar    1  UNL1        0.0078
      8 C         142.8947  141.7801  160.3104 C.ar    1  UNL1        0.0209
      9 C         141.9750  140.6618  159.9185 C.ar    1  UNL1        0.1005
     10 N         142.2240  139.8941  158.6541 N.ar    1  UNL1       -0.2263
     11 C         143.3927  140.2447  157.7817 C.ar    1  UNL1        0.1507
     12 C         142.1778  135.8198  156.0350 C.ar    1  UNL1        0.0029
     13 C         140.8825  136.1223  155.3415 C.ar    1  UNL1        0.0001
     14 C         140.5070  137.5428  155.0400 C.ar    1  UNL1        0.0015
     15 C         141.4267  138.6610  155.4320 C.ar    1  UNL1        0.0176
     16 C         142.7220  138.3587  156.1254 C.ar    1  UNL1        0.0654
     17 C         143.0975  136.9381  156.4269 C.ar    1  UNL1        0.0176
     18 C         143.3043  131.5580  156.9394 C.ar    1  UNL1        0.1863
     19 C         142.2121  131.8522  155.9542 C.ar    1  UNL1        0.0379
     20 C         141.8366  133.2729  155.6527 C.ar    1  UNL1        0.0045
     21 C         142.5533  134.3993  156.3364 C.ar    1  UNL1        0.0193
     22 C         143.6455  134.1051  157.3216 C.ar    1  UNL1        0.1003
     23 N         144.0210  132.6845  157.6231 N.ar    1  UNL1       -0.2257
     24 C         144.0553  128.7168  157.5424 C.3     1  UNL1        0.1834
     25 S         143.6798  130.1375  157.2409 S.O2    1  UNL1        0.0268
     26 O         142.6442  129.6572  156.2677 O.2     1  UNL1       -0.1671
     27 O         144.7153  130.6177  158.2140 O.2     1  UNL1       -0.1671
     28 C         146.8990  141.2962  155.1644 C.2     1  UNL1        0.2504
     29 O         146.7115  141.4452  153.6836 O.2     1  UNL1       -0.2700
     30 N         148.2552  141.4977  155.7726 N.am    1  UNL1       -0.3024
     31 H         148.3783  141.3999  156.7445 H       1  UNL1        0.1497
     32 C         149.4239  141.8482  154.9002 C.3     1  UNL1        0.0720
     33 C         150.8916  141.7686  154.6008 C.3     1  UNL1        0.0213
     34 C         149.9805  142.5349  153.6883 C.3     1  UNL1        0.0213
@<TRIPOS>BOND
     1    24    25    1
     2    25    26    2
     3    25    27    2
     4    25    18    1
     5    18    19   ar
     6    19    20   ar
     7    20    21   ar
     8    21    12    1
     9    12    13   ar
    10    13    14   ar
    11    14    15   ar
    12    15    16   ar
    13    16     1    1
    14     1     2   ar
    15     2     3   ar
    16     3    28    1
    17    28    29    2
    18    28    30   am
    19    30    32    1
    20    32    33    1
    21    33    34    1
    22     3     4   ar
    23     4     5    2
    24     4     6   ar
    25     6     7   ar
    26     7     8   ar
    27     8     9   ar
    28     9    10   ar
    29    10    11   ar
    30    16    17   ar
    31    21    22   ar
    32    22    23   ar
    33    23    18   ar
    34    17    12   ar
    35    11     1   ar
    36    34    32    1
    37    11     6   ar
    38    30    31    1
@<TRIPOS>MOLECULE
*****
 34 38 0 0 0
SMALL
GASTEIGER

@<TRIPOS>ATOM
      1 N         141.6645  141.1841  162.9893 N.ar    1  UNL1       -0.2900
      2 C         141.8838  141.7994  164.3396 C.ar    1  UNL1        0.0891
      3 C         141.1295  141.2849  165.5297 C.ar    1  UNL1        0.1098
      4 C         140.1559  140.1551  165.3695 C.ar    1  UNL1        0.2043
      5 O         139.4016  139.6407  166.5596 O.2     1  UNL1       -0.2863
      6 C         139.9365  139.5399  164.0192 C.ar    1  UNL1        0.0736
      7 C         138.9628  138.4102  163.8590 C.ar    1  UNL1        0.0078
      8 C         138.7435  137.7949  162.5087 C.ar    1  UNL1        0.0209
      9 C         139.4978  138.3094  161.3186 C.ar    1  UNL1        0.1005
     10 N         140.4714  139.4392  161.4788 N.ar    1  UNL1       -0.2263
     11 C         140.6908  140.0544  162.8291 C.ar    1  UNL1        0.1507
     12 C         142.5103  143.1604  159.6533 C.ar    1  UNL1        0.0029
     13 C         143.9273  142.7276  159.4190 C.ar    1  UNL1        0.0001
     14 C         144.5900  141.7804  160.3748 C.ar    1  UNL1        0.0015
     15 C         143.8357  141.2659  161.5649 C.ar    1  UNL1        0.0176
     16 C         142.4188  141.6986  161.7992 C.ar    1  UNL1        0.0654
     17 C         141.7560  142.6459  160.8434 C.ar    1  UNL1        0.0176
     18 C         140.5223  146.0020  156.7857 C.ar    1  UNL1        0.1863
     19 C         141.6418  145.1219  156.3144 C.ar    1  UNL1        0.0379
     20 C         142.3044  144.1747  157.2703 C.ar    1  UNL1        0.0045
     21 C         141.8476  144.1076  158.6975 C.ar    1  UNL1        0.0193
     22 C         140.7281  144.9877  159.1688 C.ar    1  UNL1        0.1003
     23 N         140.0655  145.9349  158.2130 N.ar    1  UNL1       -0.2257
     24 C         139.1969  147.8965  154.8741 C.3     1  UNL1        0.1834
     25 S         139.8596  146.9492  155.8299 S.O2    1  UNL1        0.0268
     26 O         140.6263  146.3394  154.6940 O.2     1  UNL1       -0.1671
     27 O         139.0929  147.5590  156.9658 O.2     1  UNL1       -0.1671
     28 C         141.3490  141.9001  166.8801 C.2     1  UNL1        0.2504
     29 O         142.7436  142.1129  167.3896 O.2     1  UNL1       -0.2700
     30 N         140.1737  142.3026  167.7208 N.am    1  UNL1       -0.3024
     31 H         139.2584  142.1630  167.3863 H       1  UNL1        0.1497
     32 C         140.3932  142.9179  169.0710 C.3     1  UNL1        0.0720
     33 C         140.7160  142.7711  170.5285 C.3     1  UNL1        0.0213
     34 C         140.4504  144.1303  169.9523 C.3     1  UNL1        0.0213
@<TRIPOS>BOND
     1    24    25    1
     2    25    26    2
     3    25    27    2
     4    25    18    1
     5    18    19   ar
     6    19    20   ar
     7    20    21   ar
     8    21    12    1
     9    12    13   ar
    10    13    14   ar
    11    14    15   ar
    12    15    16   ar
    13    16     1    1
    14     1     2   ar
    15     2     3   ar
    16     3    28    1
    17    28    29    2
    18    28    30   am
    19    30    32    1
    20    32    33    1
    21    33    34    1
    22     3     4   ar
    23     4     5    2
    24     4     6   ar
    25     6     7   ar
    26     7     8   ar
    27     8     9   ar
    28     9    10   ar
    29    10    11   ar
    30    16    17   ar
    31    21    22   ar
    32    22    23   ar
    33    23    18   ar
    34    17    12   ar
    35    11     1   ar
    36    34    32    1
    37    11     6   ar
    38    30    31    1
@<TRIPOS>MOLECULE
*****
 34 38 0 0 0
SMALL
GASTEIGER

@<TRIPOS>ATOM
      1 N         141.0809  139.6875  159.7984 N.ar    1  UNL1       -0.2900
      2 C         140.9076  138.4612  158.9522 C.ar    1  UNL1        0.0891
      3 C         141.8627  138.1837  157.8294 C.ar    1  UNL1        0.1098
      4 C         142.9910  139.1324  157.5527 C.ar    1  UNL1        0.2043
      5 O         143.9461  138.8549  156.4298 O.2     1  UNL1       -0.2863
      6 C         143.1644  140.3588  158.3989 C.ar    1  UNL1        0.0736
      7 C         144.2928  141.3076  158.1223 C.ar    1  UNL1        0.0078
      8 C         144.4660  142.5339  158.9685 C.ar    1  UNL1        0.0209
      9 C         143.5110  142.8114  160.0913 C.ar    1  UNL1        0.1005
     10 N         142.3826  141.8627  160.3680 N.ar    1  UNL1       -0.2263
     11 C         142.2093  140.6364  159.5218 C.ar    1  UNL1        0.1507
     12 C         139.6445  140.1747  163.4658 C.ar    1  UNL1        0.0029
     13 C         138.2157  140.5201  163.1670 C.ar    1  UNL1        0.0001
     14 C         137.7420  140.5880  161.7454 C.ar    1  UNL1        0.0015
     15 C         138.6971  140.3105  160.6225 C.ar    1  UNL1        0.0176
     16 C         140.1258  139.9651  160.9213 C.ar    1  UNL1        0.0654
     17 C         140.5996  139.8971  162.3429 C.ar    1  UNL1        0.0176
     18 C         141.0655  139.9709  167.7306 C.ar    1  UNL1        0.1863
     19 C         139.5980  139.9135  167.4255 C.ar    1  UNL1        0.0379
     20 C         139.1243  139.9815  166.0038 C.ar    1  UNL1        0.0045
     21 C         140.1182  140.1068  164.8874 C.ar    1  UNL1        0.0193
     22 C         141.5857  140.1642  165.1925 C.ar    1  UNL1        0.1003
     23 N         142.0593  140.0962  166.6141 N.ar    1  UNL1       -0.2257
     24 C         142.0128  139.8351  170.5739 C.3     1  UNL1        0.1834
     25 S         141.5391  139.9030  169.1522 S.O2    1  UNL1        0.0268
     26 O         142.9545  140.0832  168.6893 O.2     1  UNL1       -0.1671
     27 O         140.1238  139.7229  169.6152 O.2     1  UNL1       -0.1671
     28 C         141.6893  136.9573  156.9831 C.2     1  UNL1        0.2504
     29 O         140.4355  136.7705  156.1812 O.2     1  UNL1       -0.2700
     30 N         142.7698  135.9178  156.9389 N.am    1  UNL1       -0.3024
     31 H         143.5927  136.0403  157.4652 H       1  UNL1        0.1497
     32 C         142.5964  134.6915  156.0927 C.3     1  UNL1        0.0720
     33 C         141.7959  133.4840  155.7038 C.3     1  UNL1        0.0213
     34 C         143.0967  133.7748  155.0158 C.3     1  UNL1        0.0213
@<TRIPOS>BOND
     1    24    25    1
     2    25    26    2
     3    25    27    2
     4    25    18    1
     5    18    19   ar
     6    19    20   ar
     7    20    21   ar
     8    21    12    1
     9    12    13   ar
    10    13    14   ar
    11    14    15   ar
    12    15    16   ar
    13    16     1    1
    14     1     2   ar
    15     2     3   ar
    16     3    28    1
    17    28    29    2
    18    28    30   am
    19    30    32    1
    20    32    33    1
    21    33    34    1
    22     3     4   ar
    23     4     5    2
    24     4     6   ar
    25     6     7   ar
    26     7     8   ar
    27     8     9   ar
    28     9    10   ar
    29    10    11   ar
    30    16    17   ar
    31    21    22   ar
    32    22    23   ar
    33    23    18   ar
    34    17    12   ar
    35    11     1   ar
    36    34    32    1
    37    11     6   ar
    38    30    31    1
