@<TRIPOS>MOLECULE
*****
 30 33 0 0 0
SMALL
GASTEIGER

@<TRIPOS>ATOM
      1 C         139.4859  140.4662  169.4141 C.2     1  UNL1        0.2529
      2 O         138.6323  139.9366  170.5281 O.2     1  UNL1       -0.2698
      3 N         139.2456  140.0128  168.0046 N.am    1  UNL1       -0.2759
      4 C         138.1516  139.0299  167.7091 C.3     1  UNL1        0.0954
      5 C         137.9112  138.5765  166.2996 C.3     1  UNL1        0.0410
      6 C         138.7648  139.1060  165.1856 C.3     1  UNL1        0.0722
      7 C         139.8587  140.0889  165.4811 C.3     1  UNL1        0.0410
      8 C         140.0991  140.5422  166.8905 C.3     1  UNL1        0.0954
      9 C         144.2641  142.6031  170.1087 C.3     1  UNL1        0.1548
     10 N         142.7761  142.4312  170.0288 N.ar    1  UNL1       -0.2380
     11 N         141.7503  143.4917  170.2996 N.ar    1  UNL1       -0.1667
     12 C         140.3929  142.8846  170.1023 C.ar    1  UNL1        0.1270
     13 C         140.5798  141.4490  169.7095 C.ar    1  UNL1        0.1024
     14 C         142.0527  141.1688  169.6641 C.ar    1  UNL1        0.1408
     15 CL        142.6903  139.8567  169.3153 Cl      1  UNL1       -0.0615
     16 N         138.5245  138.6526  163.7761 N.pl3   1  UNL1       -0.3367
     17 H         137.7063  138.1527  163.5525 H       1  UNL1        0.1465
     18 C         139.5307  138.9610  162.7072 C.2     1  UNL1        0.0322
     19 C         140.5334  137.9227  162.2991 C.3     1  UNL1        0.1278
     20 C         141.5395  138.2310  161.2302 C.2     1  UNL1        0.2513
     21 O         142.5423  137.1927  160.8221 O.2     1  UNL1       -0.2726
     22 N         141.5430  139.5776  160.5694 N.am    1  UNL1       -0.1788
     23 C         140.5403  140.6159  160.9775 C.ar    1  UNL1        0.0766
     24 C         140.5438  141.9625  160.3167 C.ar    1  UNL1        0.0486
     25 C         139.5411  143.0008  160.7248 C.ar    1  UNL1        0.1687
     26 F         139.5446  144.3474  160.0640 F       1  UNL1       -0.2018
     27 C         138.5349  142.6925  161.7937 C.ar    1  UNL1        0.1675
     28 F         137.5322  143.7307  162.2018 F       1  UNL1       -0.2018
     29 C         138.5314  141.3459  162.4545 C.ar    1  UNL1        0.0342
     30 C         139.5342  140.3076  162.0464 C.ar    1  UNL1        0.0272
@<TRIPOS>BOND
     1     9    10    1
     2    10    11   ar
     3    11    12   ar
     4    12    13   ar
     5    13     1    1
     6     1     2    2
     7     1     3   am
     8     3     4    1
     9     4     5    1
    10     5     6    1
    11     6    16    1
    12    16    18    1
    13    18    19    1
    14    19    20    1
    15    20    21    2
    16    20    22    1
    17    22    23    2
    18    23    24   ar
    19    24    25   ar
    20    25    26    1
    21    25    27   ar
    22    27    28    1
    23    27    29   ar
    24    29    30   ar
    25     6     7    1
    26     7     8    1
    27    13    14   ar
    28    14    15    1
    29    14    10   ar
    30     8     3    1
    31    30    18    2
    32    30    23   ar
    33    16    17    1
@<TRIPOS>MOLECULE
*****
 30 33 0 0 0
SMALL
GASTEIGER

@<TRIPOS>ATOM
      1 C         142.7806  139.0027  167.2600 C.2     1  UNL1        0.2529
      2 O         143.9437  138.0812  167.0408 O.2     1  UNL1       -0.2698
      3 N         141.7032  139.1106  166.2220 N.am    1  UNL1       -0.2759
      4 C         141.7889  138.2969  164.9647 C.3     1  UNL1        0.0954
      5 C         140.7115  138.4048  163.9267 C.3     1  UNL1        0.0410
      6 C         139.5484  139.3263  164.1459 C.3     1  UNL1        0.0722
      7 C         139.4627  140.1399  165.4031 C.3     1  UNL1        0.0410
      8 C         140.5401  140.0321  166.4412 C.3     1  UNL1        0.0954
      9 C         142.8367  143.0764  170.6189 C.3     1  UNL1        0.1548
     10 N         142.7207  141.6888  170.0612 N.ar    1  UNL1       -0.2380
     11 N         142.4055  140.4479  170.8428 N.ar    1  UNL1       -0.1667
     12 C         142.3896  139.2907  169.8886 C.ar    1  UNL1        0.1270
     13 C         142.6950  139.8163  168.5173 C.ar    1  UNL1        0.1024
     14 C         142.8996  141.2984  168.6240 C.ar    1  UNL1        0.1408
     15 CL        143.2259  142.2272  167.4922 Cl      1  UNL1       -0.0615
     16 N         138.4709  139.4342  163.1079 N.pl3   1  UNL1       -0.3367
     17 H         137.8213  138.7032  162.9949 H       1  UNL1        0.1465
     18 C         138.3834  140.6559  162.2419 C.2     1  UNL1        0.0322
     19 C         138.0277  141.9810  162.8482 C.3     1  UNL1        0.1278
     20 C         137.9402  143.2026  161.9822 C.2     1  UNL1        0.2513
     21 O         137.5844  144.5278  162.5885 O.2     1  UNL1       -0.2726
     22 N         138.2084  143.0992  160.5100 N.am    1  UNL1       -0.1788
     23 C         138.5641  141.7741  159.9038 C.ar    1  UNL1        0.0766
     24 C         138.8323  141.6707  158.4316 C.ar    1  UNL1        0.0486
     25 C         139.1881  140.3456  157.8253 C.ar    1  UNL1        0.1687
     26 F         139.4563  140.2422  156.3531 F       1  UNL1       -0.2018
     27 C         139.2756  139.1239  158.6913 C.ar    1  UNL1        0.1675
     28 F         139.6313  137.7988  158.0850 F       1  UNL1       -0.2018
     29 C         139.0074  139.2273  160.1635 C.ar    1  UNL1        0.0342
     30 C         138.6516  140.5525  160.7697 C.ar    1  UNL1        0.0272
@<TRIPOS>BOND
     1     9    10    1
     2    10    11   ar
     3    11    12   ar
     4    12    13   ar
     5    13     1    1
     6     1     2    2
     7     1     3   am
     8     3     4    1
     9     4     5    1
    10     5     6    1
    11     6    16    1
    12    16    18    1
    13    18    19    1
    14    19    20    1
    15    20    21    2
    16    20    22    1
    17    22    23    2
    18    23    24   ar
    19    24    25   ar
    20    25    26    1
    21    25    27   ar
    22    27    28    1
    23    27    29   ar
    24    29    30   ar
    25     6     7    1
    26     7     8    1
    27    13    14   ar
    28    14    15    1
    29    14    10   ar
    30     8     3    1
    31    30    18    2
    32    30    23   ar
    33    16    17    1
@<TRIPOS>MOLECULE
*****
 30 33 0 0 0
SMALL
GASTEIGER

@<TRIPOS>ATOM
      1 C         139.9831  144.7820  161.0647 C.2     1  UNL1        0.2529
      2 O         139.2585  146.0099  161.5308 O.2     1  UNL1       -0.2698
      3 N         140.3849  143.7277  162.0531 N.am    1  UNL1       -0.2759
      4 C         140.0621  143.9014  163.5077 C.3     1  UNL1        0.0954
      5 C         140.4639  142.8471  164.4962 C.3     1  UNL1        0.0410
      6 C         141.1885  141.6192  164.0301 C.3     1  UNL1        0.0722
      7 C         141.5112  141.4455  162.5756 C.3     1  UNL1        0.0410
      8 C         141.1094  142.4998  161.5871 C.3     1  UNL1        0.0954
      9 C         139.8663  143.1000  156.0609 C.3     1  UNL1        0.1548
     10 N         140.2522  143.8352  157.3102 N.ar    1  UNL1       -0.2380
     11 N         141.3528  144.8470  157.4335 N.ar    1  UNL1       -0.1667
     12 C         141.3859  145.3247  158.8550 C.ar    1  UNL1        0.1270
     13 C         140.3058  144.6083  159.6102 C.ar    1  UNL1        0.1024
     14 C         139.6051  143.6878  158.6554 C.ar    1  UNL1        0.1408
     15 CL        138.4587  142.7792  158.9875 Cl      1  UNL1       -0.0615
     16 N         141.5903  140.5649  165.0186 N.pl3   1  UNL1       -0.3367
     17 H         142.4448  140.0883  164.9098 H       1  UNL1        0.1465
     18 C         140.6900  140.2369  166.1727 C.2     1  UNL1        0.0322
     19 C         139.4298  139.4567  165.9427 C.3     1  UNL1        0.1278
     20 C         138.5296  139.1287  167.0969 C.2     1  UNL1        0.2513
     21 O         137.2692  138.3485  166.8669 O.2     1  UNL1       -0.2726
     22 N         138.8897  139.5808  168.4810 N.am    1  UNL1       -0.1788
     23 C         140.1500  140.3610  168.7110 C.ar    1  UNL1        0.0766
     24 C         140.5102  140.8132  170.0952 C.ar    1  UNL1        0.0486
     25 C         141.7704  141.5934  170.3252 C.ar    1  UNL1        0.1687
     26 F         142.1306  142.0455  171.7093 F       1  UNL1       -0.2018
     27 C         142.6707  141.9214  169.1710 C.ar    1  UNL1        0.1675
     28 F         143.9310  142.7016  169.4010 F       1  UNL1       -0.2018
     29 C         142.3106  141.4692  167.7869 C.ar    1  UNL1        0.0342
     30 C         141.0502  140.6890  167.5569 C.ar    1  UNL1        0.0272
@<TRIPOS>BOND
     1     9    10    1
     2    10    11   ar
     3    11    12   ar
     4    12    13   ar
     5    13     1    1
     6     1     2    2
     7     1     3   am
     8     3     4    1
     9     4     5    1
    10     5     6    1
    11     6    16    1
    12    16    18    1
    13    18    19    1
    14    19    20    1
    15    20    21    2
    16    20    22    1
    17    22    23    2
    18    23    24   ar
    19    24    25   ar
    20    25    26    1
    21    25    27   ar
    22    27    28    1
    23    27    29   ar
    24    29    30   ar
    25     6     7    1
    26     7     8    1
    27    13    14   ar
    28    14    15    1
    29    14    10   ar
    30     8     3    1
    31    30    18    2
    32    30    23   ar
    33    16    17    1
@<TRIPOS>MOLECULE
*****
 30 33 0 0 0
SMALL
GASTEIGER

@<TRIPOS>ATOM
      1 C         139.4917  140.4760  169.1933 C.2     1  UNL1        0.2529
      2 O         138.5734  139.9056  170.2333 O.2     1  UNL1       -0.2698
      3 N         139.3527  140.0577  167.7595 N.am    1  UNL1       -0.2759
      4 C         138.2955  139.0691  167.3657 C.3     1  UNL1        0.0954
      5 C         138.1566  138.6509  165.9319 C.3     1  UNL1        0.0410
      6 C         139.0749  139.2212  164.8919 C.3     1  UNL1        0.0722
      7 C         140.1320  140.2098  165.2858 C.3     1  UNL1        0.0410
      8 C         140.2710  140.6280  166.7196 C.3     1  UNL1        0.0954
      9 C         144.1849  142.6730  170.2067 C.3     1  UNL1        0.1548
     10 N         142.7061  142.4744  170.0529 N.ar    1  UNL1       -0.2380
     11 N         141.6453  143.4972  170.3334 N.ar    1  UNL1       -0.1667
     12 C         140.3120  142.8730  170.0456 C.ar    1  UNL1        0.1270
     13 C         140.5488  141.4645  169.5871 C.ar    1  UNL1        0.1024
     14 C         142.0284  141.2182  169.5917 C.ar    1  UNL1        0.1408
     15 CL        142.7107  139.9400  169.2032 Cl      1  UNL1       -0.0615
     16 N         138.9359  138.8030  163.4581 N.pl3   1  UNL1       -0.3367
     17 H         138.7120  137.8701  163.2370 H       1  UNL1        0.1465
     18 C         139.1382  139.8060  162.3613 C.2     1  UNL1        0.0322
     19 C         138.2759  141.0318  162.2976 C.3     1  UNL1        0.1278
     20 C         138.4782  142.0348  161.2008 C.2     1  UNL1        0.2513
     21 O         137.6159  143.2606  161.1370 O.2     1  UNL1       -0.2726
     22 N         139.5427  141.8121  160.1677 N.am    1  UNL1       -0.1788
     23 C         140.4050  140.5863  160.2315 C.ar    1  UNL1        0.0766
     24 C         141.4695  140.3636  159.1984 C.ar    1  UNL1        0.0486
     25 C         142.3317  139.1379  159.2621 C.ar    1  UNL1        0.1687
     26 F         143.3963  138.9152  158.2291 F       1  UNL1       -0.2018
     27 C         142.1295  138.1348  160.3590 C.ar    1  UNL1        0.1675
     28 F         142.9917  136.9091  160.4227 F       1  UNL1       -0.2018
     29 C         141.0650  138.3575  161.3920 C.ar    1  UNL1        0.0342
     30 C         140.2027  139.5833  161.3283 C.ar    1  UNL1        0.0272
@<TRIPOS>BOND
     1     9    10    1
     2    10    11   ar
     3    11    12   ar
     4    12    13   ar
     5    13     1    1
     6     1     2    2
     7     1     3   am
     8     3     4    1
     9     4     5    1
    10     5     6    1
    11     6    16    1
    12    16    18    1
    13    18    19    1
    14    19    20    1
    15    20    21    2
    16    20    22    1
    17    22    23    2
    18    23    24   ar
    19    24    25   ar
    20    25    26    1
    21    25    27   ar
    22    27    28    1
    23    27    29   ar
    24    29    30   ar
    25     6     7    1
    26     7     8    1
    27    13    14   ar
    28    14    15    1
    29    14    10   ar
    30     8     3    1
    31    30    18    2
    32    30    23   ar
    33    16    17    1
@<TRIPOS>MOLECULE
*****
 30 33 0 0 0
SMALL
GASTEIGER

@<TRIPOS>ATOM
      1 C         139.6711  139.9880  168.8192 C.2     1  UNL1        0.2529
      2 O         138.5126  139.6662  169.7161 O.2     1  UNL1       -0.2698
      3 N         139.5408  139.8161  167.3348 N.am    1  UNL1       -0.2759
      4 C         138.2519  139.3223  166.7473 C.3     1  UNL1        0.0954
      5 C         138.1215  139.1504  165.2629 C.3     1  UNL1        0.0410
      6 C         139.2800  139.4722  164.3660 C.3     1  UNL1        0.0722
      7 C         140.5688  139.9659  164.9535 C.3     1  UNL1        0.0410
      8 C         140.6992  140.1379  166.4379 C.3     1  UNL1        0.0954
      9 C         143.4568  143.1789  170.6542 C.3     1  UNL1        0.1548
     10 N         142.7000  141.9485  170.2501 N.ar    1  UNL1       -0.2380
     11 N         143.1864  140.5347  170.3713 N.ar    1  UNL1       -0.1667
     12 C         142.1110  139.6282  169.8500 C.ar    1  UNL1        0.1270
     13 C         140.9599  140.4818  169.4067 C.ar    1  UNL1        0.1024
     14 C         141.3240  141.9157  169.6539 C.ar    1  UNL1        0.1408
     15 CL        140.4632  143.1077  169.3571 Cl      1  UNL1       -0.0615
     16 N         139.1496  139.3002  162.8816 N.pl3   1  UNL1       -0.3367
     17 H         139.2621  138.4096  162.4774 H       1  UNL1        0.1465
     18 C         138.8478  140.4853  162.0129 C.2     1  UNL1        0.0322
     19 C         138.4410  141.7877  162.6360 C.3     1  UNL1        0.1278
     20 C         138.1392  142.9727  161.7673 C.2     1  UNL1        0.2513
     21 O         137.7323  144.2752  162.3904 O.2     1  UNL1       -0.2726
     22 N         138.2443  142.8554  160.2756 N.am    1  UNL1       -0.1788
     23 C         138.6512  141.5530  159.6526 C.ar    1  UNL1        0.0766
     24 C         138.7563  141.4357  158.1608 C.ar    1  UNL1        0.0486
     25 C         139.1632  140.1333  157.5378 C.ar    1  UNL1        0.1687
     26 F         139.2683  140.0159  156.0461 F       1  UNL1       -0.2018
     27 C         139.4650  138.9482  158.4065 C.ar    1  UNL1        0.1675
     28 F         139.8718  137.6458  157.7834 F       1  UNL1       -0.2018
     29 C         139.3599  139.0655  159.8982 C.ar    1  UNL1        0.0342
     30 C         138.9529  140.3680  160.5212 C.ar    1  UNL1        0.0272
@<TRIPOS>BOND
     1     9    10    1
     2    10    11   ar
     3    11    12   ar
     4    12    13   ar
     5    13     1    1
     6     1     2    2
     7     1     3   am
     8     3     4    1
     9     4     5    1
    10     5     6    1
    11     6    16    1
    12    16    18    1
    13    18    19    1
    14    19    20    1
    15    20    21    2
    16    20    22    1
    17    22    23    2
    18    23    24   ar
    19    24    25   ar
    20    25    26    1
    21    25    27   ar
    22    27    28    1
    23    27    29   ar
    24    29    30   ar
    25     6     7    1
    26     7     8    1
    27    13    14   ar
    28    14    15    1
    29    14    10   ar
    30     8     3    1
    31    30    18    2
    32    30    23   ar
    33    16    17    1
@<TRIPOS>MOLECULE
*****
 30 33 0 0 0
SMALL
GASTEIGER

@<TRIPOS>ATOM
      1 C         140.0713  145.1322  161.0947 C.2     1  UNL1        0.2529
      2 O         139.2285  146.3342  161.4032 O.2     1  UNL1       -0.2698
      3 N         140.6343  144.3043  162.2117 N.am    1  UNL1       -0.2759
      4 C         140.3544  144.6784  163.6372 C.3     1  UNL1        0.0954
      5 C         140.9173  143.8505  164.7542 C.3     1  UNL1        0.0410
      6 C         141.7601  142.6485  164.4457 C.3     1  UNL1        0.0722
      7 C         142.0399  142.2745  163.0203 C.3     1  UNL1        0.0410
      8 C         141.4770  143.1024  161.9033 C.3     1  UNL1        0.0954
      9 C         139.8651  142.7183  156.4032 C.3     1  UNL1        0.1548
     10 N         140.2563  143.6487  157.5129 N.ar    1  UNL1       -0.2380
     11 N         141.3070  144.7167  157.4388 N.ar    1  UNL1       -0.1667
     12 C         141.3656  145.4024  158.7716 C.ar    1  UNL1        0.1270
     13 C         140.3511  144.7582  159.6693 C.ar    1  UNL1        0.1024
     14 C         139.6656  143.6744  158.8914 C.ar    1  UNL1        0.1408
     15 CL        138.5799  142.7742  159.4022 Cl      1  UNL1       -0.0615
     16 N         142.3231  141.8206  165.5627 N.pl3   1  UNL1       -0.3367
     17 H         143.2067  141.3976  165.4649 H       1  UNL1        0.1465
     18 C         141.5397  141.6373  166.8288 C.2     1  UNL1        0.0322
     19 C         141.8977  142.4264  168.0531 C.3     1  UNL1        0.1278
     20 C         141.1144  142.2431  169.3191 C.2     1  UNL1        0.2513
     21 O         141.4723  143.0322  170.5435 O.2     1  UNL1       -0.2726
     22 N         139.9731  141.2705  169.3607 N.am    1  UNL1       -0.1788
     23 C         139.6152  140.4814  168.1364 C.ar    1  UNL1        0.0766
     24 C         138.4739  139.5089  168.1780 C.ar    1  UNL1        0.0486
     25 C         138.1160  138.7197  166.9536 C.ar    1  UNL1        0.1687
     26 F         136.9747  137.7472  166.9953 F       1  UNL1       -0.2018
     27 C         138.8993  138.9031  165.6876 C.ar    1  UNL1        0.1675
     28 F         138.5414  138.1139  164.4632 F       1  UNL1       -0.2018
     29 C         140.0406  139.8756  165.6459 C.ar    1  UNL1        0.0342
     30 C         140.3985  140.6648  166.8704 C.ar    1  UNL1        0.0272
@<TRIPOS>BOND
     1     9    10    1
     2    10    11   ar
     3    11    12   ar
     4    12    13   ar
     5    13     1    1
     6     1     2    2
     7     1     3   am
     8     3     4    1
     9     4     5    1
    10     5     6    1
    11     6    16    1
    12    16    18    1
    13    18    19    1
    14    19    20    1
    15    20    21    2
    16    20    22    1
    17    22    23    2
    18    23    24   ar
    19    24    25   ar
    20    25    26    1
    21    25    27   ar
    22    27    28    1
    23    27    29   ar
    24    29    30   ar
    25     6     7    1
    26     7     8    1
    27    13    14   ar
    28    14    15    1
    29    14    10   ar
    30     8     3    1
    31    30    18    2
    32    30    23   ar
    33    16    17    1
@<TRIPOS>MOLECULE
*****
 30 33 0 0 0
SMALL
GASTEIGER

@<TRIPOS>ATOM
      1 C         139.5743  139.9818  168.3496 C.2     1  UNL1        0.2529
      2 O         138.3457  139.5036  169.0652 O.2     1  UNL1       -0.2698
      3 N         139.6190  139.9758  166.8503 N.am    1  UNL1       -0.2759
      4 C         138.4352  139.4915  166.0666 C.3     1  UNL1        0.0954
      5 C         138.4799  139.4855  164.5673 C.3     1  UNL1        0.0410
      6 C         139.7085  139.9637  163.8516 C.3     1  UNL1        0.0722
      7 C         140.8922  140.4479  164.6353 C.3     1  UNL1        0.0410
      8 C         140.8475  140.4539  166.1347 C.3     1  UNL1        0.0954
      9 C         143.1200  143.1469  170.6498 C.3     1  UNL1        0.1548
     10 N         142.3878  141.9209  170.1906 N.ar    1  UNL1       -0.2380
     11 N         142.7715  140.5016  170.4881 N.ar    1  UNL1       -0.1667
     12 C         141.7642  139.6025  169.8346 C.ar    1  UNL1        0.1270
     13 C         140.7580  140.4661  169.1333 C.ar    1  UNL1        0.1024
     14 C         141.1434  141.8989  169.3533 C.ar    1  UNL1        0.1408
     15 CL        140.4128  143.0991  168.8283 Cl      1  UNL1       -0.0615
     16 N         139.7532  139.9576  162.3523 N.pl3   1  UNL1       -0.3367
     17 H         139.1759  139.3422  161.8451 H       1  UNL1        0.1465
     18 C         140.6775  140.8892  161.6258 C.2     1  UNL1        0.0322
     19 C         141.8727  140.3455  160.9007 C.3     1  UNL1        0.1278
     20 C         142.7970  141.2772  160.1742 C.2     1  UNL1        0.2513
     21 O         143.9922  140.7335  159.4490 O.2     1  UNL1       -0.2726
     22 N         142.5260  142.7525  160.1729 N.am    1  UNL1       -0.1788
     23 C         141.3308  143.2962  160.8980 C.ar    1  UNL1        0.0766
     24 C         141.0599  144.7715  160.8967 C.ar    1  UNL1        0.0486
     25 C         139.8647  145.3152  161.6218 C.ar    1  UNL1        0.1687
     26 F         139.5937  146.7905  161.6205 F       1  UNL1       -0.2018
     27 C         138.9404  144.3836  162.3483 C.ar    1  UNL1        0.1675
     28 F         137.7452  144.9273  163.0735 F       1  UNL1       -0.2018
     29 C         139.2113  142.9082  162.3497 C.ar    1  UNL1        0.0342
     30 C         140.4066  142.3646  161.6245 C.ar    1  UNL1        0.0272
@<TRIPOS>BOND
     1     9    10    1
     2    10    11   ar
     3    11    12   ar
     4    12    13   ar
     5    13     1    1
     6     1     2    2
     7     1     3   am
     8     3     4    1
     9     4     5    1
    10     5     6    1
    11     6    16    1
    12    16    18    1
    13    18    19    1
    14    19    20    1
    15    20    21    2
    16    20    22    1
    17    22    23    2
    18    23    24   ar
    19    24    25   ar
    20    25    26    1
    21    25    27   ar
    22    27    28    1
    23    27    29   ar
    24    29    30   ar
    25     6     7    1
    26     7     8    1
    27    13    14   ar
    28    14    15    1
    29    14    10   ar
    30     8     3    1
    31    30    18    2
    32    30    23   ar
    33    16    17    1
@<TRIPOS>MOLECULE
*****
 30 33 0 0 0
SMALL
GASTEIGER

@<TRIPOS>ATOM
      1 C         142.9880  143.8176  161.8557 C.2     1  UNL1        0.2529
      2 O         144.3481  144.4501  161.8495 O.2     1  UNL1       -0.2698
      3 N         142.7008  142.6654  162.7723 N.am    1  UNL1       -0.2759
      4 C         143.7738  142.1458  163.6827 C.3     1  UNL1        0.0954
      5 C         143.4867  140.9937  164.5993 C.3     1  UNL1        0.0410
      6 C         142.1265  140.3612  164.6055 C.3     1  UNL1        0.0722
      7 C         141.0536  140.8808  163.6952 C.3     1  UNL1        0.0410
      8 C         141.3407  142.0329  162.7786 C.3     1  UNL1        0.0954
      9 C         140.0624  144.7453  157.5591 C.3     1  UNL1        0.1548
     10 N         140.5703  144.7636  158.9704 N.ar    1  UNL1       -0.2380
     11 N         139.9577  145.5099  160.1184 N.ar    1  UNL1       -0.1667
     12 C         140.7888  145.2464  161.3389 C.ar    1  UNL1        0.1270
     13 C         141.9151  144.3372  160.9453 C.ar    1  UNL1        0.1024
     14 C         141.7800  144.0388  159.4816 C.ar    1  UNL1        0.1408
     15 CL        142.6942  143.1684  158.6711 Cl      1  UNL1       -0.0615
     16 N         141.8393  139.2091  165.5222 N.pl3   1  UNL1       -0.3367
     17 H         142.3605  138.3774  165.4455 H       1  UNL1        0.1465
     18 C         140.7581  139.3243  166.5555 C.2     1  UNL1        0.0322
     19 C         139.3973  138.7547  166.2839 C.3     1  UNL1        0.1278
     20 C         138.3162  138.8699  167.3172 C.2     1  UNL1        0.2513
     21 O         136.9553  138.3003  167.0456 O.2     1  UNL1       -0.2726
     22 N         138.5958  139.5546  168.6222 N.am    1  UNL1       -0.1788
     23 C         139.9566  140.1242  168.8938 C.ar    1  UNL1        0.0766
     24 C         140.2363  140.8089  170.1988 C.ar    1  UNL1        0.0486
     25 C         141.5970  141.3785  170.4704 C.ar    1  UNL1        0.1687
     26 F         141.8767  142.0632  171.7754 F       1  UNL1       -0.2018
     27 C         142.6783  141.2633  169.4370 C.ar    1  UNL1        0.1675
     28 F         144.0390  141.8329  169.7087 F       1  UNL1       -0.2018
     29 C         142.3986  140.5786  168.1321 C.ar    1  UNL1        0.0342
     30 C         141.0377  140.0090  167.8605 C.ar    1  UNL1        0.0272
@<TRIPOS>BOND
     1     9    10    1
     2    10    11   ar
     3    11    12   ar
     4    12    13   ar
     5    13     1    1
     6     1     2    2
     7     1     3   am
     8     3     4    1
     9     4     5    1
    10     5     6    1
    11     6    16    1
    12    16    18    1
    13    18    19    1
    14    19    20    1
    15    20    21    2
    16    20    22    1
    17    22    23    2
    18    23    24   ar
    19    24    25   ar
    20    25    26    1
    21    25    27   ar
    22    27    28    1
    23    27    29   ar
    24    29    30   ar
    25     6     7    1
    26     7     8    1
    27    13    14   ar
    28    14    15    1
    29    14    10   ar
    30     8     3    1
    31    30    18    2
    32    30    23   ar
    33    16    17    1
@<TRIPOS>MOLECULE
*****
 30 33 0 0 0
SMALL
GASTEIGER

@<TRIPOS>ATOM
      1 C         139.7122  140.0726  167.8564 C.2     1  UNL1        0.2529
      2 O         138.5848  139.3873  168.5703 O.2     1  UNL1       -0.2698
      3 N         139.6167  140.3362  166.3829 N.am    1  UNL1       -0.2759
      4 C         138.3939  139.9146  165.6232 C.3     1  UNL1        0.0954
      5 C         138.2984  140.1782  164.1497 C.3     1  UNL1        0.0410
      6 C         139.4257  140.8635  163.4358 C.3     1  UNL1        0.0722
      7 C         140.6484  141.2851  164.1954 C.3     1  UNL1        0.0410
      8 C         140.7439  141.0215  165.6690 C.3     1  UNL1        0.0954
      9 C         143.2225  143.0050  170.4944 C.3     1  UNL1        0.1548
     10 N         142.5484  141.8421  169.8286 N.ar    1  UNL1       -0.2380
     11 N         143.0847  140.4439  169.7415 N.ar    1  UNL1       -0.1667
     12 C         142.0875  139.6108  168.9922 C.ar    1  UNL1        0.1270
     13 C         140.9349  140.4942  168.6161 C.ar    1  UNL1        0.1024
     14 C         141.2198  141.8731  169.1330 C.ar    1  UNL1        0.1408
     15 CL        140.3320  143.0726  168.9811 Cl      1  UNL1       -0.0615
     16 N         139.3302  141.1272  161.9622 N.pl3   1  UNL1       -0.3367
     17 H         138.8379  140.5031  161.3813 H       1  UNL1        0.1465
     18 C         139.9849  142.3417  161.3736 C.2     1  UNL1        0.0322
     19 C         139.3767  143.6969  161.5822 C.3     1  UNL1        0.1278
     20 C         140.0314  144.9114  160.9937 C.2     1  UNL1        0.2513
     21 O         139.4232  146.2666  161.2023 O.2     1  UNL1       -0.2726
     22 N         141.2942  144.7706  160.1965 N.am    1  UNL1       -0.1788
     23 C         141.9023  143.4155  159.9879 C.ar    1  UNL1        0.0766
     24 C         143.1652  143.2747  159.1907 C.ar    1  UNL1        0.0486
     25 C         143.7733  141.9196  158.9821 C.ar    1  UNL1        0.1687
     26 F         145.0361  141.7788  158.1849 F       1  UNL1       -0.2018
     27 C         143.1187  140.7050  159.5707 C.ar    1  UNL1        0.1675
     28 F         143.7268  139.3498  159.3621 F       1  UNL1       -0.2018
     29 C         141.8559  140.8457  160.3679 C.ar    1  UNL1        0.0342
     30 C         141.2477  142.2010  160.5764 C.ar    1  UNL1        0.0272
@<TRIPOS>BOND
     1     9    10    1
     2    10    11   ar
     3    11    12   ar
     4    12    13   ar
     5    13     1    1
     6     1     2    2
     7     1     3   am
     8     3     4    1
     9     4     5    1
    10     5     6    1
    11     6    16    1
    12    16    18    1
    13    18    19    1
    14    19    20    1
    15    20    21    2
    16    20    22    1
    17    22    23    2
    18    23    24   ar
    19    24    25   ar
    20    25    26    1
    21    25    27   ar
    22    27    28    1
    23    27    29   ar
    24    29    30   ar
    25     6     7    1
    26     7     8    1
    27    13    14   ar
    28    14    15    1
    29    14    10   ar
    30     8     3    1
    31    30    18    2
    32    30    23   ar
    33    16    17    1
