@<TRIPOS>MOLECULE
*****
 33 38 0 0 0
SMALL
GASTEIGER

@<TRIPOS>ATOM
      1 O         142.8604  144.1817  158.3615 O.2     1  UNL1       -0.2745
      2 C         141.6861  144.2395  159.2931 C.2     1  UNL1        0.2302
      3 N         141.8611  143.8955  160.7426 N.am    1  UNL1       -0.2764
      4 C         143.2103  143.4936  161.2605 C.3     1  UNL1        0.1107
      5 C         143.3852  143.1496  162.7100 C.3     1  UNL1        0.0940
      6 N         142.2110  143.2074  163.6416 N.3     1  UNL1       -0.2665
      7 C         142.3860  142.8634  165.0911 C.3     1  UNL1        0.1067
      8 C         141.2118  142.9212  166.0227 C.3     1  UNL1        0.1534
      9 O         139.8626  143.3231  165.5047 O.3     1  UNL1       -0.3489
     10 C         139.6877  143.6671  164.0553 C.3     1  UNL1        0.1601
     11 C         140.8619  143.6093  163.1237 C.3     1  UNL1        0.1075
     12 C         140.6869  143.9533  161.6742 C.3     1  UNL1        0.1119
     13 C         141.3868  142.5772  167.4722 C.ar    1  UNL1        0.0076
     14 C         142.6067  141.8303  167.9238 C.ar    1  UNL1       -0.0001
     15 C         142.7817  141.4863  169.3733 C.ar    1  UNL1        0.0239
     16 C         141.7367  141.8892  170.3712 C.ar    1  UNL1        0.1431
     17 N         141.6360  141.6907  171.8545 N.ar    1  UNL1       -0.0483
     18 O         140.3538  142.3149  172.3197 O.2     1  UNL1       -0.2415
     19 N         139.6621  142.8992  171.1238 N.ar    1  UNL1       -0.0483
     20 C         140.5168  142.6360  169.9196 C.ar    1  UNL1        0.1429
     21 C         140.3418  142.9801  168.4700 C.ar    1  UNL1        0.0222
     22 C         140.3370  144.6413  158.7752 C.3     1  UNL1        0.1131
     23 C         139.4559  143.6257  158.1101 C.ar    1  UNL1        0.0062
     24 C         139.0011  142.4150  158.8698 C.ar    1  UNL1        0.0009
     25 C         138.1201  141.3994  158.2047 C.ar    1  UNL1        0.0386
     26 C         137.6939  141.5946  156.7798 C.ar    1  UNL1        0.1672
     27 N         138.1487  142.8053  156.0201 N.ar    1  UNL1       -0.2252
     28 C         139.0297  143.8209  156.6852 C.ar    1  UNL1        0.0968
     29 N         136.8129  140.5790  156.1146 N.ar    1  UNL1       -0.1708
     30 C         137.2218  139.6394  155.0192 C.ar    1  UNL1        0.2272
     31 N         136.0300  138.8044  154.6557 N.ar    1  UNL1       -0.1044
     32 N         134.8844  139.2279  155.5265 N.ar    1  UNL1       -0.0222
     33 N         135.3682  140.3247  156.4281 N.ar    1  UNL1       -0.0371
@<TRIPOS>BOND
     1     1     2    2
     2     2    22    1
     3    22    23    1
     4    23    24   ar
     5    24    25   ar
     6    25    26   ar
     7    26    29    1
     8    29    30   ar
     9    30    31   ar
    10    31    32   ar
    11    32    33   ar
    12    26    27   ar
    13    27    28   ar
    14     2     3   am
    15     3     4    1
    16     4     5    1
    17     5     6    1
    18     6     7    1
    19     7     8    1
    20     8    13    1
    21    13    14   ar
    22    14    15   ar
    23    15    16   ar
    24    16    17   ar
    25    17    18   ar
    26    18    19   ar
    27    19    20   ar
    28    20    21   ar
    29     8     9    1
    30     9    10    1
    31    11    10    1
    32    11    12    1
    33    28    23   ar
    34    12     3    1
    35    33    29   ar
    36    11     6    1
    37    21    13   ar
    38    20    16   ar
@<TRIPOS>MOLECULE
*****
 33 38 0 0 0
SMALL
GASTEIGER

@<TRIPOS>ATOM
      1 O         140.9790  145.1601  158.3565 O.2     1  UNL1       -0.2745
      2 C         140.9691  143.8426  159.0735 C.2     1  UNL1        0.2302
      3 N         141.1117  143.8000  160.5662 N.am    1  UNL1       -0.2764
      4 C         141.2641  145.0748  161.3417 C.3     1  UNL1        0.1107
      5 C         141.4067  145.0322  162.8343 C.3     1  UNL1        0.0940
      6 N         141.3968  143.7147  163.5513 N.3     1  UNL1       -0.2665
      7 C         141.5393  143.6721  165.0440 C.3     1  UNL1        0.1067
      8 C         141.5294  142.3546  165.7610 C.3     1  UNL1        0.1534
      9 O         141.3770  141.0797  164.9854 O.3     1  UNL1       -0.3489
     10 C         141.2344  141.1224  163.4928 C.3     1  UNL1        0.1601
     11 C         141.2443  142.4399  162.7758 C.3     1  UNL1        0.1075
     12 C         141.1018  142.4825  161.2832 C.3     1  UNL1        0.1119
     13 C         141.6720  142.3120  167.2536 C.ar    1  UNL1        0.0076
     14 C         143.0357  142.2497  167.8753 C.ar    1  UNL1       -0.0001
     15 C         143.1782  142.2071  169.3679 C.ar    1  UNL1        0.0239
     16 C         141.9571  142.2266  170.2388 C.ar    1  UNL1        0.1431
     17 N         141.7863  142.1947  171.7287 N.ar    1  UNL1       -0.0483
     18 O         140.3171  142.2372  172.0278 O.2     1  UNL1       -0.2415
     19 N         139.5798  142.2954  170.7228 N.ar    1  UNL1       -0.0483
     20 C         140.5935  142.2889  169.6171 C.ar    1  UNL1        0.1429
     21 C         140.4509  142.3315  168.1245 C.ar    1  UNL1        0.0222
     22 C         140.8167  142.5678  158.2980 C.3     1  UNL1        0.1131
     23 C         139.4622  142.1416  157.8142 C.ar    1  UNL1        0.0062
     24 C         138.6772  143.0345  156.8997 C.ar    1  UNL1        0.0009
     25 C         137.3229  142.6083  156.4160 C.ar    1  UNL1        0.0386
     26 C         136.7536  141.2891  156.8468 C.ar    1  UNL1        0.1672
     27 N         137.5386  140.3961  157.7612 N.ar    1  UNL1       -0.2252
     28 C         138.8929  140.8224  158.2450 C.ar    1  UNL1        0.0968
     29 N         135.3991  140.8629  156.3630 N.ar    1  UNL1       -0.1708
     30 C         134.7084  141.3579  155.1269 C.ar    1  UNL1        0.2272
     31 N         133.3801  140.6679  155.0303 N.ar    1  UNL1       -0.1044
     32 N         133.2499  139.7463  156.2067 N.ar    1  UNL1       -0.0222
     33 N         134.4977  139.8668  157.0303 N.ar    1  UNL1       -0.0371
@<TRIPOS>BOND
     1     1     2    2
     2     2    22    1
     3    22    23    1
     4    23    24   ar
     5    24    25   ar
     6    25    26   ar
     7    26    29    1
     8    29    30   ar
     9    30    31   ar
    10    31    32   ar
    11    32    33   ar
    12    26    27   ar
    13    27    28   ar
    14     2     3   am
    15     3     4    1
    16     4     5    1
    17     5     6    1
    18     6     7    1
    19     7     8    1
    20     8    13    1
    21    13    14   ar
    22    14    15   ar
    23    15    16   ar
    24    16    17   ar
    25    17    18   ar
    26    18    19   ar
    27    19    20   ar
    28    20    21   ar
    29     8     9    1
    30     9    10    1
    31    11    10    1
    32    11    12    1
    33    28    23   ar
    34    12     3    1
    35    33    29   ar
    36    11     6    1
    37    21    13   ar
    38    20    16   ar
@<TRIPOS>MOLECULE
*****
 33 38 0 0 0
SMALL
GASTEIGER

@<TRIPOS>ATOM
      1 O         144.2675  142.6343  158.2855 O.2     1  UNL1       -0.2745
      2 C         143.1129  142.1060  159.0842 C.2     1  UNL1        0.2302
      3 N         143.1266  142.2090  160.5806 N.am    1  UNL1       -0.2764
      4 C         144.2948  142.8403  161.2783 C.3     1  UNL1        0.1107
      5 C         144.3084  142.9432  162.7746 C.3     1  UNL1        0.0940
      6 N         143.1539  142.4150  163.5733 N.3     1  UNL1       -0.2665
      7 C         143.1676  142.5180  165.0698 C.3     1  UNL1        0.1067
      8 C         142.0130  141.9897  165.8685 C.3     1  UNL1        0.1534
      9 O         140.8448  141.3585  165.1707 O.3     1  UNL1       -0.3489
     10 C         140.8311  141.2555  163.6744 C.3     1  UNL1        0.1601
     11 C         141.9857  141.7837  162.8757 C.3     1  UNL1        0.1075
     12 C         141.9720  141.6807  161.3793 C.3     1  UNL1        0.1119
     13 C         142.0266  142.0927  167.3649 C.ar    1  UNL1        0.0076
     14 C         143.3251  142.2814  168.0919 C.ar    1  UNL1       -0.0001
     15 C         143.3387  142.3844  169.5882 C.ar    1  UNL1        0.0239
     16 C         142.0540  142.2987  170.3577 C.ar    1  UNL1        0.1431
     17 N         141.7572  142.3665  171.8265 N.ar    1  UNL1       -0.0483
     18 O         140.2754  142.2197  172.0072 O.2     1  UNL1       -0.2415
     19 N         139.6563  142.0612  170.6502 N.ar    1  UNL1       -0.0483
     20 C         140.7555  142.1100  169.6307 C.ar    1  UNL1        0.1429
     21 C         140.7419  142.0070  168.1343 C.ar    1  UNL1        0.0222
     22 C         141.9447  141.4747  158.3865 C.3     1  UNL1        0.1131
     23 C         142.0221  140.0456  157.9374 C.ar    1  UNL1        0.0062
     24 C         141.2999  139.6089  156.6975 C.ar    1  UNL1        0.0009
     25 C         141.3773  138.1798  156.2485 C.ar    1  UNL1        0.0386
     26 C         142.1770  137.1874  157.0395 C.ar    1  UNL1        0.1672
     27 N         142.8992  137.6241  158.2795 N.ar    1  UNL1       -0.2252
     28 C         142.8218  139.0532  158.7284 C.ar    1  UNL1        0.0968
     29 N         142.2544  135.7582  156.5904 N.ar    1  UNL1       -0.1708
     30 C         143.2245  134.7286  157.0892 C.ar    1  UNL1        0.2272
     31 N         142.9450  133.4419  156.3709 N.ar    1  UNL1       -0.1044
     32 N         141.8021  133.6762  155.4281 N.ar    1  UNL1       -0.0222
     33 N         141.3753  135.1078  155.5638 N.ar    1  UNL1       -0.0371
@<TRIPOS>BOND
     1     1     2    2
     2     2    22    1
     3    22    23    1
     4    23    24   ar
     5    24    25   ar
     6    25    26   ar
     7    26    29    1
     8    29    30   ar
     9    30    31   ar
    10    31    32   ar
    11    32    33   ar
    12    26    27   ar
    13    27    28   ar
    14     2     3   am
    15     3     4    1
    16     4     5    1
    17     5     6    1
    18     6     7    1
    19     7     8    1
    20     8    13    1
    21    13    14   ar
    22    14    15   ar
    23    15    16   ar
    24    16    17   ar
    25    17    18   ar
    26    18    19   ar
    27    19    20   ar
    28    20    21   ar
    29     8     9    1
    30     9    10    1
    31    11    10    1
    32    11    12    1
    33    28    23   ar
    34    12     3    1
    35    33    29   ar
    36    11     6    1
    37    21    13   ar
    38    20    16   ar
@<TRIPOS>MOLECULE
*****
 33 38 0 0 0
SMALL
GASTEIGER

@<TRIPOS>ATOM
      1 O         137.7081  140.1252  158.4475 O.2     1  UNL1       -0.2745
      2 C         139.0086  140.2668  159.1815 C.2     1  UNL1        0.2302
      3 N         139.0180  140.3690  160.6780 N.am    1  UNL1       -0.2764
      4 C         137.7269  140.3295  161.4405 C.3     1  UNL1        0.1107
      5 C         137.7363  140.4317  162.9370 C.3     1  UNL1        0.0940
      6 N         139.0368  140.5733  163.6709 N.3     1  UNL1       -0.2665
      7 C         139.0461  140.6754  165.1675 C.3     1  UNL1        0.1067
      8 C         140.3466  140.8170  165.9014 C.3     1  UNL1        0.1534
      9 O         141.6378  140.8565  165.1388 O.3     1  UNL1       -0.3489
     10 C         141.6284  140.7543  163.6424 C.3     1  UNL1        0.1601
     11 C         140.3279  140.6127  162.9084 C.3     1  UNL1        0.1075
     12 C         140.3185  140.5106  161.4120 C.3     1  UNL1        0.1119
     13 C         140.3560  140.9192  167.3979 C.ar    1  UNL1        0.0076
     14 C         139.3900  140.1094  168.2110 C.ar    1  UNL1       -0.0001
     15 C         139.3994  140.2116  169.7075 C.ar    1  UNL1        0.0239
     16 C         140.3748  141.1235  170.3909 C.ar    1  UNL1        0.1431
     17 N         140.6171  141.4300  171.8391 N.ar    1  UNL1       -0.0483
     18 O         141.7328  142.4292  171.9210 O.2     1  UNL1       -0.2415
     19 N         142.1801  142.7402  170.5234 N.ar    1  UNL1       -0.0483
     20 C         141.3408  141.9332  169.5778 C.ar    1  UNL1        0.1429
     21 C         141.3315  141.8310  168.0813 C.ar    1  UNL1        0.0222
     22 C         140.2997  140.3062  158.4190 C.3     1  UNL1        0.1131
     23 C         140.9934  139.0278  158.0520 C.ar    1  UNL1        0.0062
     24 C         140.4413  138.1620  156.9587 C.ar    1  UNL1        0.0009
     25 C         141.1350  136.8837  156.5918 C.ar    1  UNL1        0.0386
     26 C         142.3809  136.4712  157.3183 C.ar    1  UNL1        0.1672
     27 N         142.9330  137.3371  158.4115 N.ar    1  UNL1       -0.2252
     28 C         142.2393  138.6154  158.7784 C.ar    1  UNL1        0.0968
     29 N         143.0746  135.1929  156.9513 N.ar    1  UNL1       -0.1708
     30 C         143.3271  134.6950  155.5590 C.ar    1  UNL1        0.2272
     31 N         144.0461  133.3824  155.6594 N.ar    1  UNL1       -0.1044
     32 N         144.2379  133.0690  157.1138 N.ar    1  UNL1       -0.0222
     33 N         143.6375  134.1879  157.9122 N.ar    1  UNL1       -0.0371
@<TRIPOS>BOND
     1     1     2    2
     2     2    22    1
     3    22    23    1
     4    23    24   ar
     5    24    25   ar
     6    25    26   ar
     7    26    29    1
     8    29    30   ar
     9    30    31   ar
    10    31    32   ar
    11    32    33   ar
    12    26    27   ar
    13    27    28   ar
    14     2     3   am
    15     3     4    1
    16     4     5    1
    17     5     6    1
    18     6     7    1
    19     7     8    1
    20     8    13    1
    21    13    14   ar
    22    14    15   ar
    23    15    16   ar
    24    16    17   ar
    25    17    18   ar
    26    18    19   ar
    27    19    20   ar
    28    20    21   ar
    29     8     9    1
    30     9    10    1
    31    11    10    1
    32    11    12    1
    33    28    23   ar
    34    12     3    1
    35    33    29   ar
    36    11     6    1
    37    21    13   ar
    38    20    16   ar
@<TRIPOS>MOLECULE
*****
 33 38 0 0 0
SMALL
GASTEIGER

@<TRIPOS>ATOM
      1 O         139.6425  146.1732  159.2231 O.2     1  UNL1       -0.2745
      2 C         140.4733  145.0097  159.6770 C.2     1  UNL1        0.2302
      3 N         140.5088  144.6346  161.1290 N.am    1  UNL1       -0.2764
      4 C         139.7135  145.4229  162.1269 C.3     1  UNL1        0.1107
      5 C         139.7490  145.0478  163.5788 C.3     1  UNL1        0.0940
      6 N         140.5799  143.8844  164.0327 N.3     1  UNL1       -0.2665
      7 C         140.6154  143.5092  165.4847 C.3     1  UNL1        0.1067
      8 C         141.4462  142.3458  165.9386 C.3     1  UNL1        0.1534
      9 O         142.2416  141.5574  164.9406 O.3     1  UNL1       -0.3489
     10 C         142.2061  141.9326  163.4887 C.3     1  UNL1        0.1601
     11 C         141.3752  143.0960  163.0348 C.3     1  UNL1        0.1075
     12 C         141.3397  143.4712  161.5829 C.3     1  UNL1        0.1119
     13 C         141.4818  141.9707  167.3905 C.ar    1  UNL1        0.0076
     14 C         142.3756  140.8598  167.8565 C.ar    1  UNL1       -0.0001
     15 C         142.4111  140.4847  169.3083 C.ar    1  UNL1        0.0239
     16 C         141.5529  141.2203  170.2943 C.ar    1  UNL1        0.1431
     17 N         141.3773  141.0751  171.7769 N.ar    1  UNL1       -0.0483
     18 O         140.3750  142.0961  172.2272 O.2     1  UNL1       -0.2415
     19 N         139.9311  142.8724  171.0229 N.ar    1  UNL1       -0.0483
     20 C         140.6590  142.3312  169.8284 C.ar    1  UNL1        0.1429
     21 C         140.6235  142.7064  168.3764 C.ar    1  UNL1        0.0222
     22 C         141.2686  144.2214  158.6791 C.3     1  UNL1        0.1131
     23 C         140.6932  142.9724  158.0798 C.ar    1  UNL1        0.0062
     24 C         139.2136  142.8580  157.8618 C.ar    1  UNL1        0.0009
     25 C         138.6383  141.6091  157.2625 C.ar    1  UNL1        0.0386
     26 C         139.5426  140.4747  156.8812 C.ar    1  UNL1        0.1672
     27 N         141.0222  140.5891  157.0992 N.ar    1  UNL1       -0.2252
     28 C         141.5975  141.8380  157.6985 C.ar    1  UNL1        0.0968
     29 N         138.9671  139.2257  156.2819 N.ar    1  UNL1       -0.1708
     30 C         139.5176  137.8389  156.4366 C.ar    1  UNL1        0.2272
     31 N         138.6310  136.9004  155.6730 N.ar    1  UNL1       -0.1044
     32 N         137.5325  137.7072  155.0464 N.ar    1  UNL1       -0.0222
     33 N         137.7403  139.1442  155.4227 N.ar    1  UNL1       -0.0371
@<TRIPOS>BOND
     1     1     2    2
     2     2    22    1
     3    22    23    1
     4    23    24   ar
     5    24    25   ar
     6    25    26   ar
     7    26    29    1
     8    29    30   ar
     9    30    31   ar
    10    31    32   ar
    11    32    33   ar
    12    26    27   ar
    13    27    28   ar
    14     2     3   am
    15     3     4    1
    16     4     5    1
    17     5     6    1
    18     6     7    1
    19     7     8    1
    20     8    13    1
    21    13    14   ar
    22    14    15   ar
    23    15    16   ar
    24    16    17   ar
    25    17    18   ar
    26    18    19   ar
    27    19    20   ar
    28    20    21   ar
    29     8     9    1
    30     9    10    1
    31    11    10    1
    32    11    12    1
    33    28    23   ar
    34    12     3    1
    35    33    29   ar
    36    11     6    1
    37    21    13   ar
    38    20    16   ar
@<TRIPOS>MOLECULE
*****
 33 38 0 0 0
SMALL
GASTEIGER

@<TRIPOS>ATOM
      1 O         138.8578  137.1279  165.4536 O.2     1  UNL1       -0.2745
      2 C         138.5144  138.5566  165.1520 C.2     1  UNL1        0.2302
      3 N         138.5828  139.0627  163.7416 N.am    1  UNL1       -0.2764
      4 C         138.9944  138.1401  162.6328 C.3     1  UNL1        0.1107
      5 C         139.0628  138.6462  161.2225 C.3     1  UNL1        0.0940
      6 N         138.7194  140.0749  160.9209 N.3     1  UNL1       -0.2665
      7 C         138.7877  140.5810  159.5104 C.3     1  UNL1        0.1067
      8 C         138.4443  142.0097  159.2088 C.3     1  UNL1        0.1534
      9 O         138.0326  142.9322  160.3176 O.3     1  UNL1       -0.3489
     10 C         137.9643  142.4261  161.7280 C.3     1  UNL1        0.1601
     11 C         138.3077  140.9975  162.0296 C.3     1  UNL1        0.1075
     12 C         138.2394  140.4913  163.4399 C.3     1  UNL1        0.1119
     13 C         138.5126  142.5158  157.7984 C.ar    1  UNL1        0.0076
     14 C         137.6344  141.9134  156.7420 C.ar    1  UNL1       -0.0001
     15 C         137.7027  142.4195  155.3317 C.ar    1  UNL1        0.0239
     16 C         138.6492  143.5280  154.9776 C.ar    1  UNL1        0.1431
     17 N         138.9351  144.2284  153.6824 N.ar    1  UNL1       -0.0483
     18 O         139.9900  145.2636  153.9382 O.2     1  UNL1       -0.2415
     19 N         140.3561  145.2030  155.3916 N.ar    1  UNL1       -0.0483
     20 C         139.5274  144.1304  156.0339 C.ar    1  UNL1        0.1429
     21 C         139.4592  143.6243  157.4444 C.ar    1  UNL1        0.0222
     22 C         138.1027  139.4791  166.2607 C.3     1  UNL1        0.1131
     23 C         139.1449  140.2117  167.0529 C.ar    1  UNL1        0.0062
     24 C         139.3497  139.8879  168.5031 C.ar    1  UNL1        0.0009
     25 C         140.3918  140.6205  169.2951 C.ar    1  UNL1        0.0386
     26 C         141.2291  141.6767  168.6369 C.ar    1  UNL1        0.1672
     27 N         141.0243  142.0005  167.1867 N.ar    1  UNL1       -0.2252
     28 C         139.9822  141.2680  166.3947 C.ar    1  UNL1        0.0968
     29 N         142.2713  142.4093  169.4290 N.ar    1  UNL1       -0.1708
     30 C         143.7566  142.2601  169.2825 C.ar    1  UNL1        0.2272
     31 N         144.4144  143.1782  170.2696 N.ar    1  UNL1       -0.1044
     32 N         143.3355  143.8948  171.0262 N.ar    1  UNL1       -0.0222
     33 N         142.0110  143.4196  170.5067 N.ar    1  UNL1       -0.0371
@<TRIPOS>BOND
     1     1     2    2
     2     2    22    1
     3    22    23    1
     4    23    24   ar
     5    24    25   ar
     6    25    26   ar
     7    26    29    1
     8    29    30   ar
     9    30    31   ar
    10    31    32   ar
    11    32    33   ar
    12    26    27   ar
    13    27    28   ar
    14     2     3   am
    15     3     4    1
    16     4     5    1
    17     5     6    1
    18     6     7    1
    19     7     8    1
    20     8    13    1
    21    13    14   ar
    22    14    15   ar
    23    15    16   ar
    24    16    17   ar
    25    17    18   ar
    26    18    19   ar
    27    19    20   ar
    28    20    21   ar
    29     8     9    1
    30     9    10    1
    31    11    10    1
    32    11    12    1
    33    28    23   ar
    34    12     3    1
    35    33    29   ar
    36    11     6    1
    37    21    13   ar
    38    20    16   ar
@<TRIPOS>MOLECULE
*****
 33 38 0 0 0
SMALL
GASTEIGER

@<TRIPOS>ATOM
      1 O         140.8768  136.6710  163.3376 O.2     1  UNL1       -0.2745
      2 C         139.9656  137.8570  163.2229 C.2     1  UNL1        0.2302
      3 N         140.1639  138.8510  162.1172 N.am    1  UNL1       -0.2764
      4 C         141.2735  138.6591  161.1262 C.3     1  UNL1        0.1107
      5 C         141.4718  139.6532  160.0206 C.3     1  UNL1        0.0940
      6 N         140.5605  140.8391  159.9059 N.3     1  UNL1       -0.2665
      7 C         140.7589  141.8332  158.8002 C.3     1  UNL1        0.1067
      8 C         139.8477  143.0192  158.6855 C.3     1  UNL1        0.1534
      9 O         138.7381  143.2111  159.6766 O.3     1  UNL1       -0.3489
     10 C         138.5398  142.2170  160.7822 C.3     1  UNL1        0.1601
     11 C         139.4510  141.0311  160.8969 C.3     1  UNL1        0.1075
     12 C         139.2527  140.0370  162.0025 C.3     1  UNL1        0.1119
     13 C         140.0460  144.0132  157.5799 C.ar    1  UNL1        0.0076
     14 C         140.1073  145.4793  157.8915 C.ar    1  UNL1       -0.0001
     15 C         140.3057  146.4733  156.7858 C.ar    1  UNL1        0.0239
     16 C         140.4426  146.0014  155.3686 C.ar    1  UNL1        0.1431
     17 N         140.6457  146.7412  154.0796 N.ar    1  UNL1       -0.0483
     18 O         140.7098  145.7324  152.9714 O.2     1  UNL1       -0.2415
     19 N         140.5464  144.3691  153.5755 N.ar    1  UNL1       -0.0483
     20 C         140.3813  144.5355  155.0570 C.ar    1  UNL1        0.1429
     21 C         140.1829  143.5413  156.1627 C.ar    1  UNL1        0.0222
     22 C         138.8560  138.0489  164.2139 C.3     1  UNL1        0.1131
     23 C         139.1365  138.6955  165.5380 C.ar    1  UNL1        0.0062
     24 C         140.4217  139.4386  165.7525 C.ar    1  UNL1        0.0009
     25 C         140.7022  140.0852  167.0766 C.ar    1  UNL1        0.0386
     26 C         139.6974  139.9888  168.1861 C.ar    1  UNL1        0.1672
     27 N         138.4122  139.2457  167.9717 N.ar    1  UNL1       -0.2252
     28 C         138.1318  138.5991  166.6476 C.ar    1  UNL1        0.0968
     29 N         139.9780  140.6354  169.5103 N.ar    1  UNL1       -0.1708
     30 C         140.1006  142.1088  169.7635 C.ar    1  UNL1        0.2272
     31 N         140.3835  142.3063  171.2233 N.ar    1  UNL1       -0.1044
     32 N         140.4357  140.9548  171.8723 N.ar    1  UNL1       -0.0222
     33 N         140.1850  139.9223  170.8135 N.ar    1  UNL1       -0.0371
@<TRIPOS>BOND
     1     1     2    2
     2     2    22    1
     3    22    23    1
     4    23    24   ar
     5    24    25   ar
     6    25    26   ar
     7    26    29    1
     8    29    30   ar
     9    30    31   ar
    10    31    32   ar
    11    32    33   ar
    12    26    27   ar
    13    27    28   ar
    14     2     3   am
    15     3     4    1
    16     4     5    1
    17     5     6    1
    18     6     7    1
    19     7     8    1
    20     8    13    1
    21    13    14   ar
    22    14    15   ar
    23    15    16   ar
    24    16    17   ar
    25    17    18   ar
    26    18    19   ar
    27    19    20   ar
    28    20    21   ar
    29     8     9    1
    30     9    10    1
    31    11    10    1
    32    11    12    1
    33    28    23   ar
    34    12     3    1
    35    33    29   ar
    36    11     6    1
    37    21    13   ar
    38    20    16   ar
@<TRIPOS>MOLECULE
*****
 33 38 0 0 0
SMALL
GASTEIGER

@<TRIPOS>ATOM
      1 O         139.6947  145.8596  159.0992 O.2     1  UNL1       -0.2745
      2 C         140.8573  145.1232  159.6958 C.2     1  UNL1        0.2302
      3 N         140.8151  144.6925  161.1321 N.am    1  UNL1       -0.2764
      4 C         139.6102  144.9981  161.9716 C.3     1  UNL1        0.1107
      5 C         139.5680  144.5674  163.4078 C.3     1  UNL1        0.0940
      6 N         140.7306  143.8310  164.0044 N.3     1  UNL1       -0.2665
      7 C         140.6883  143.4002  165.4407 C.3     1  UNL1        0.1067
      8 C         141.8509  142.6639  166.0373 C.3     1  UNL1        0.1534
      9 O         143.0559  142.3582  165.1978 O.3     1  UNL1       -0.3489
     10 C         143.0981  142.7890  163.7616 C.3     1  UNL1        0.1601
     11 C         141.9355  143.5254  163.1649 C.3     1  UNL1        0.1075
     12 C         141.9777  143.9561  161.7288 C.3     1  UNL1        0.1119
     13 C         141.8087  142.2331  167.4735 C.ar    1  UNL1        0.0076
     14 C         142.7314  141.1554  167.9608 C.ar    1  UNL1       -0.0001
     15 C         142.6891  140.7247  169.3969 C.ar    1  UNL1        0.0239
     16 C         141.7243  141.3716  170.3459 C.ar    1  UNL1        0.1431
     17 N         141.4564  141.1572  171.8061 N.ar    1  UNL1       -0.0483
     18 O         140.3682  142.1024  172.2214 O.2     1  UNL1       -0.2415
     19 N         139.9635  142.9009  171.0178 N.ar    1  UNL1       -0.0483
     20 C         140.8016  142.4492  169.8587 C.ar    1  UNL1        0.1429
     21 C         140.8438  142.8800  168.4225 C.ar    1  UNL1        0.0222
     22 C         142.0622  144.8176  158.8563 C.3     1  UNL1        0.1131
     23 C         142.3370  143.4078  158.4239 C.ar    1  UNL1        0.0062
     24 C         143.7403  142.8783  158.4401 C.ar    1  UNL1        0.0009
     25 C         144.0150  141.4685  158.0077 C.ar    1  UNL1        0.0386
     26 C         142.8864  140.5882  157.5590 C.ar    1  UNL1        0.1672
     27 N         141.4831  141.1177  157.5428 N.ar    1  UNL1       -0.2252
     28 C         141.2084  142.5274  157.9752 C.ar    1  UNL1        0.0968
     29 N         143.1612  139.1784  157.1266 N.ar    1  UNL1       -0.1708
     30 C         142.4735  137.9485  157.6409 C.ar    1  UNL1        0.2272
     31 N         143.0592  136.7610  156.9361 N.ar    1  UNL1       -0.1044
     32 N         144.1088  137.2569  155.9862 N.ar    1  UNL1       -0.0222
     33 N         144.1719  138.7510  156.1039 N.ar    1  UNL1       -0.0371
@<TRIPOS>BOND
     1     1     2    2
     2     2    22    1
     3    22    23    1
     4    23    24   ar
     5    24    25   ar
     6    25    26   ar
     7    26    29    1
     8    29    30   ar
     9    30    31   ar
    10    31    32   ar
    11    32    33   ar
    12    26    27   ar
    13    27    28   ar
    14     2     3   am
    15     3     4    1
    16     4     5    1
    17     5     6    1
    18     6     7    1
    19     7     8    1
    20     8    13    1
    21    13    14   ar
    22    14    15   ar
    23    15    16   ar
    24    16    17   ar
    25    17    18   ar
    26    18    19   ar
    27    19    20   ar
    28    20    21   ar
    29     8     9    1
    30     9    10    1
    31    11    10    1
    32    11    12    1
    33    28    23   ar
    34    12     3    1
    35    33    29   ar
    36    11     6    1
    37    21    13   ar
    38    20    16   ar
@<TRIPOS>MOLECULE
*****
 33 38 0 0 0
SMALL
GASTEIGER

@<TRIPOS>ATOM
      1 O         136.9683  141.7061  163.0845 O.2     1  UNL1       -0.2745
      2 C         138.2004  140.8515  163.0438 C.2     1  UNL1        0.2302
      3 N         139.1821  141.0040  161.9199 N.am    1  UNL1       -0.2764
      4 C         138.9316  142.0109  160.8367 C.3     1  UNL1        0.1107
      5 C         139.9133  142.1633  159.7129 C.3     1  UNL1        0.0940
      6 N         141.1454  141.3088  159.6722 N.3     1  UNL1       -0.2665
      7 C         142.1271  141.4612  158.5483 C.3     1  UNL1        0.1067
      8 C         143.3592  140.6067  158.5076 C.3     1  UNL1        0.1534
      9 O         143.6097  139.5997  159.5909 O.3     1  UNL1       -0.3489
     10 C         142.6280  139.4473  160.7147 C.3     1  UNL1        0.1601
     11 C         141.3959  140.3018  160.7554 C.3     1  UNL1        0.1075
     12 C         140.4142  140.1494  161.8792 C.3     1  UNL1        0.1119
     13 C         144.3409  140.7591  157.3838 C.ar    1  UNL1        0.0076
     14 C         144.3178  139.7980  156.2322 C.ar    1  UNL1       -0.0001
     15 C         145.2995  139.9504  155.1084 C.ar    1  UNL1        0.0239
     16 C         146.3042  141.0639  155.1360 C.ar    1  UNL1        0.1431
     17 N         147.3878  141.4619  154.1782 N.ar    1  UNL1       -0.0483
     18 O         148.0806  142.6690  154.7378 O.2     1  UNL1       -0.2415
     19 N         147.4252  143.0169  156.0414 N.ar    1  UNL1       -0.0483
     20 C         146.3274  142.0249  156.2874 C.ar    1  UNL1        0.1429
     21 C         145.3457  141.8725  157.4114 C.ar    1  UNL1        0.0222
     22 C         138.4509  139.8446  164.1270 C.3     1  UNL1        0.1131
     23 C         138.9681  140.2921  165.4621 C.ar    1  UNL1        0.0062
     24 C         138.7776  139.4232  166.6698 C.ar    1  UNL1        0.0009
     25 C         139.2947  139.8707  168.0048 C.ar    1  UNL1        0.0386
     26 C         140.0023  141.1872  168.1321 C.ar    1  UNL1        0.1672
     27 N         140.1928  142.0561  166.9243 N.ar    1  UNL1       -0.2252
     28 C         139.6757  141.6086  165.5894 C.ar    1  UNL1        0.0968
     29 N         140.5195  141.6347  169.4671 N.ar    1  UNL1       -0.1708
     30 C         141.8839  142.1943  169.7417 C.ar    1  UNL1        0.2272
     31 N         141.9707  142.5067  171.2062 N.ar    1  UNL1       -0.1044
     32 N         140.6599  142.1402  171.8368 N.ar    1  UNL1       -0.0222
     33 N         139.7631  141.6013  170.7620 N.ar    1  UNL1       -0.0371
@<TRIPOS>BOND
     1     1     2    2
     2     2    22    1
     3    22    23    1
     4    23    24   ar
     5    24    25   ar
     6    25    26   ar
     7    26    29    1
     8    29    30   ar
     9    30    31   ar
    10    31    32   ar
    11    32    33   ar
    12    26    27   ar
    13    27    28   ar
    14     2     3   am
    15     3     4    1
    16     4     5    1
    17     5     6    1
    18     6     7    1
    19     7     8    1
    20     8    13    1
    21    13    14   ar
    22    14    15   ar
    23    15    16   ar
    24    16    17   ar
    25    17    18   ar
    26    18    19   ar
    27    19    20   ar
    28    20    21   ar
    29     8     9    1
    30     9    10    1
    31    11    10    1
    32    11    12    1
    33    28    23   ar
    34    12     3    1
    35    33    29   ar
    36    11     6    1
    37    21    13   ar
    38    20    16   ar
