@<TRIPOS>MOLECULE
*****
 35 39 0 0 0
SMALL
GASTEIGER

@<TRIPOS>ATOM
      1 C         143.0924  141.7766  160.4507 C.3     1  UNL1        0.0730
      2 N         142.4021  142.7057  161.4047 N.3     1  UNL1       -0.2726
      3 C         142.5129  144.2016  161.4143 C.3     1  UNL1        0.0721
      4 C         141.6590  144.7224  162.5322 C.3     1  UNL1        0.0190
      5 C         141.0204  143.5485  163.2134 C.3     1  UNL1        0.0201
      6 C         140.2671  144.3498  164.2334 C.3     1  UNL1        0.0061
      7 C         140.1562  142.8539  164.2237 C.3     1  UNL1        0.0237
      8 C         141.4796  142.3021  162.5165 C.3     1  UNL1        0.0724
      9 C         139.5933  141.5893  164.8015 C.ar    1  UNL1       -0.0225
     10 C         138.9340  140.5835  163.9049 C.ar    1  UNL1       -0.0043
     11 C         138.3711  139.3189  164.4826 C.ar    1  UNL1        0.0035
     12 C         138.4675  139.0600  165.9569 C.ar    1  UNL1        0.0714
     13 C         139.1268  140.0657  166.8535 C.ar    1  UNL1        0.0035
     14 C         139.6897  141.3304  166.2758 C.ar    1  UNL1       -0.0043
     15 C         137.9046  137.7954  166.5347 C.3     1  UNL1        0.4186
     16 F         137.3416  136.5307  167.1124 F       1  UNL1       -0.1659
     17 F         138.6665  136.9934  165.5216 F       1  UNL1       -0.1659
     18 F         137.1426  138.5973  167.5477 F       1  UNL1       -0.1659
     19 C         142.6828  140.3355  160.3786 C.3     1  UNL1        0.0294
     20 C         143.7267  139.2631  160.2758 C.3     1  UNL1        0.0666
     21 S         143.8435  138.2246  161.3518 S.3     1  UNL1       -0.0756
     22 C         144.8046  140.4806  163.5050 C.3     1  UNL1        0.1340
     23 N         143.6779  139.5080  163.6907 N.ar    1  UNL1       -0.2884
     24 C         143.2361  138.4710  162.7010 C.ar    1  UNL1        0.1932
     25 N         142.0803  137.7237  163.2974 N.ar    1  UNL1       -0.1221
     26 N         141.8077  138.2988  164.6557 N.ar    1  UNL1       -0.1282
     27 C         142.7951  139.4016  164.8988 C.ar    1  UNL1        0.1683
     28 C         142.8840  140.2491  166.1333 C.ar    1  UNL1        0.0551
     29 C         143.1640  141.7180  166.0160 C.ar    1  UNL1        0.0069
     30 C         143.2530  142.5655  167.2504 C.ar    1  UNL1        0.0298
     31 C         143.0618  141.9440  168.6022 C.ar    1  UNL1        0.1492
     32 N         142.7818  140.4750  168.7195 N.ar    1  UNL1       -0.2334
     33 C         142.6929  139.6276  167.4850 C.ar    1  UNL1        0.1026
     34 C         143.1508  142.7915  169.8366 C.1     1  UNL1        0.1198
     35 N         143.2397  143.6390  171.0711 N.1     1  UNL1       -0.1893
@<TRIPOS>BOND
     1    22    23    1
     2    23    24   ar
     3    24    21    1
     4    21    20    1
     5    20    19    1
     6    19     1    1
     7     1     2    1
     8     2     3    1
     9     3     4    1
    10     5     4    1
    11     5     6    1
    12     6     7    1
    13     7     9    1
    14     9    10   ar
    15    10    11   ar
    16    11    12   ar
    17    12    15    1
    18    15    16    1
    19    15    17    1
    20    15    18    1
    21    12    13   ar
    22    13    14   ar
    23     5     8    1
    24    24    25   ar
    25    25    26   ar
    26    26    27   ar
    27    27    28    1
    28    28    29   ar
    29    29    30   ar
    30    30    31   ar
    31    31    34    1
    32    34    35    3
    33    31    32   ar
    34    32    33   ar
    35    27    23   ar
    36    33    28   ar
    37     8     2    1
    38     7     5    1
    39    14     9   ar
@<TRIPOS>MOLECULE
*****
 35 39 0 0 0
SMALL
GASTEIGER

@<TRIPOS>ATOM
      1 C         142.6060  142.3883  160.5763 C.3     1  UNL1        0.0730
      2 N         141.9467  143.2281  161.6299 N.3     1  UNL1       -0.2726
      3 C         142.0189  144.7223  161.7395 C.3     1  UNL1        0.0721
      4 C         141.2162  145.1386  162.9362 C.3     1  UNL1        0.0190
      5 C         140.6478  143.9017  163.5663 C.3     1  UNL1        0.0201
      6 C         139.9327  144.6075  164.6800 C.3     1  UNL1        0.0061
      7 C         139.8604  143.1133  164.5705 C.3     1  UNL1        0.0237
      8 C         141.0993  142.7209  162.7590 C.3     1  UNL1        0.0724
      9 C         139.3641  141.7954  165.0870 C.ar    1  UNL1       -0.0225
     10 C         138.5308  140.9109  164.2076 C.ar    1  UNL1       -0.0043
     11 C         138.0345  139.5930  164.7240 C.ar    1  UNL1        0.0035
     12 C         138.3715  139.1596  166.1200 C.ar    1  UNL1        0.0714
     13 C         139.2048  140.0440  166.9994 C.ar    1  UNL1        0.0035
     14 C         139.7011  141.3619  166.4829 C.ar    1  UNL1       -0.0043
     15 C         137.8751  137.8417  166.6364 C.3     1  UNL1        0.4186
     16 F         137.3788  136.5237  167.1530 F       1  UNL1       -0.1659
     17 F         138.5298  137.1427  165.4820 F       1  UNL1       -0.1659
     18 F         137.2205  138.5407  167.7909 F       1  UNL1       -0.1659
     19 C         142.1252  140.9905  160.3217 C.3     1  UNL1        0.0294
     20 C         143.1151  139.8838  160.1088 C.3     1  UNL1        0.0666
     21 S         143.6325  139.1046  161.2814 S.3     1  UNL1       -0.0756
     22 C         141.8138  139.0698  163.9908 C.3     1  UNL1        0.1340
     23 N         143.1164  139.7920  163.8124 N.ar    1  UNL1       -0.2884
     24 C         143.9523  139.8080  162.5671 C.ar    1  UNL1        0.1932
     25 N         145.1642  140.6509  162.8331 N.ar    1  UNL1       -0.1221
     26 N         145.0773  141.1559  164.2428 N.ar    1  UNL1       -0.1282
     27 C         143.8116  140.6251  164.8482 C.ar    1  UNL1        0.1683
     28 C         143.3265  140.8822  166.2441 C.ar    1  UNL1        0.0551
     29 C         143.0032  139.7309  167.1497 C.ar    1  UNL1        0.0069
     30 C         142.5180  139.9880  168.5456 C.ar    1  UNL1        0.0298
     31 C         142.3562  141.3965  169.0358 C.ar    1  UNL1        0.1492
     32 N         142.6795  142.5477  168.1302 N.ar    1  UNL1       -0.2334
     33 C         143.1646  142.2905  166.7343 C.ar    1  UNL1        0.1026
     34 C         141.8710  141.6536  170.4317 C.1     1  UNL1        0.1198
     35 N         141.3859  141.9106  171.8276 N.1     1  UNL1       -0.1893
@<TRIPOS>BOND
     1    22    23    1
     2    23    24   ar
     3    24    21    1
     4    21    20    1
     5    20    19    1
     6    19     1    1
     7     1     2    1
     8     2     3    1
     9     3     4    1
    10     5     4    1
    11     5     6    1
    12     6     7    1
    13     7     9    1
    14     9    10   ar
    15    10    11   ar
    16    11    12   ar
    17    12    15    1
    18    15    16    1
    19    15    17    1
    20    15    18    1
    21    12    13   ar
    22    13    14   ar
    23     5     8    1
    24    24    25   ar
    25    25    26   ar
    26    26    27   ar
    27    27    28    1
    28    28    29   ar
    29    29    30   ar
    30    30    31   ar
    31    31    34    1
    32    34    35    3
    33    31    32   ar
    34    32    33   ar
    35    27    23   ar
    36    33    28   ar
    37     8     2    1
    38     7     5    1
    39    14     9   ar
@<TRIPOS>MOLECULE
*****
 35 39 0 0 0
SMALL
GASTEIGER

@<TRIPOS>ATOM
      1 C         139.6935  143.6230  159.3754 C.3     1  UNL1        0.0730
      2 N         139.7725  144.2469  160.7373 N.3     1  UNL1       -0.2726
      3 C         140.0920  145.6825  161.0322 C.3     1  UNL1        0.0721
      4 C         140.0628  145.8675  162.5204 C.3     1  UNL1        0.0190
      5 C         139.7252  144.5463  163.1453 C.3     1  UNL1        0.0201
      6 C         139.7685  145.0287  164.5649 C.3     1  UNL1        0.0061
      7 C         139.4490  143.5931  164.2700 C.3     1  UNL1        0.0237
      8 C         139.5458  143.5447  162.0432 C.3     1  UNL1        0.0724
      9 C         139.1050  142.2139  164.7491 C.ar    1  UNL1       -0.0225
     10 C         138.3036  141.2947  163.8757 C.ar    1  UNL1       -0.0043
     11 C         137.9596  139.9155  164.3548 C.ar    1  UNL1        0.0035
     12 C         138.4170  139.4556  165.7073 C.ar    1  UNL1        0.0714
     13 C         139.2185  140.3748  166.5806 C.ar    1  UNL1        0.0035
     14 C         139.5625  141.7539  166.1016 C.ar    1  UNL1       -0.0043
     15 C         138.0731  138.0764  166.1863 C.3     1  UNL1        0.4186
     16 F         137.7290  136.6972  166.6655 F       1  UNL1       -0.1659
     17 F         138.9638  137.4882  165.1325 F       1  UNL1       -0.1659
     18 F         137.1824  138.6646  167.2402 F       1  UNL1       -0.1659
     19 C         140.7420  142.6441  158.9370 C.3     1  UNL1        0.0294
     20 C         142.0984  143.1329  158.5231 C.3     1  UNL1        0.0666
     21 S         143.2957  142.8344  159.3760 S.3     1  UNL1       -0.0756
     22 C         143.1110  140.4486  161.5949 C.3     1  UNL1        0.1340
     23 N         143.1366  141.9205  161.8829 N.ar    1  UNL1       -0.2884
     24 C         143.2215  143.0171  160.8630 C.ar    1  UNL1        0.1932
     25 N         143.2193  144.3285  161.5911 N.ar    1  UNL1       -0.1221
     26 N         143.1330  144.0424  163.0610 N.ar    1  UNL1       -0.1282
     27 C         143.0819  142.5542  163.2414 C.ar    1  UNL1        0.1683
     28 C         142.9919  141.8273  164.5504 C.ar    1  UNL1        0.0551
     29 C         142.7864  140.3415  164.5707 C.ar    1  UNL1        0.0069
     30 C         142.6964  139.6146  165.8797 C.ar    1  UNL1        0.0298
     31 C         142.8119  140.3736  167.1685 C.ar    1  UNL1        0.1492
     32 N         143.0173  141.8593  167.1482 N.ar    1  UNL1       -0.2334
     33 C         143.1073  142.5861  165.8391 C.ar    1  UNL1        0.1026
     34 C         142.7219  139.6467  168.4775 C.1     1  UNL1        0.1198
     35 N         142.6319  138.9198  169.7865 N.1     1  UNL1       -0.1893
@<TRIPOS>BOND
     1    22    23    1
     2    23    24   ar
     3    24    21    1
     4    21    20    1
     5    20    19    1
     6    19     1    1
     7     1     2    1
     8     2     3    1
     9     3     4    1
    10     5     4    1
    11     5     6    1
    12     6     7    1
    13     7     9    1
    14     9    10   ar
    15    10    11   ar
    16    11    12   ar
    17    12    15    1
    18    15    16    1
    19    15    17    1
    20    15    18    1
    21    12    13   ar
    22    13    14   ar
    23     5     8    1
    24    24    25   ar
    25    25    26   ar
    26    26    27   ar
    27    27    28    1
    28    28    29   ar
    29    29    30   ar
    30    30    31   ar
    31    31    34    1
    32    34    35    3
    33    31    32   ar
    34    32    33   ar
    35    27    23   ar
    36    33    28   ar
    37     8     2    1
    38     7     5    1
    39    14     9   ar
@<TRIPOS>MOLECULE
*****
 35 39 0 0 0
SMALL
GASTEIGER

@<TRIPOS>ATOM
      1 C         142.1248  144.0588  160.9256 C.3     1  UNL1        0.0730
      2 N         143.1489  143.2049  161.6126 N.3     1  UNL1       -0.2726
      3 C         144.4923  142.8255  161.0636 C.3     1  UNL1        0.0721
      4 C         145.1830  141.9667  162.0810 C.3     1  UNL1        0.0190
      5 C         144.2666  141.8153  163.2589 C.3     1  UNL1        0.0201
      6 C         145.1894  140.9503  164.0653 C.3     1  UNL1        0.0061
      7 C         143.8460  141.3297  164.6144 C.3     1  UNL1        0.0237
      8 C         143.0095  142.5806  162.9694 C.3     1  UNL1        0.0724
      9 C         142.8276  141.2684  165.7139 C.ar    1  UNL1       -0.0225
     10 C         142.5295  139.9620  166.3881 C.ar    1  UNL1       -0.0043
     11 C         141.5111  139.9007  167.4876 C.ar    1  UNL1        0.0035
     12 C         140.7907  141.1458  167.9130 C.ar    1  UNL1        0.0714
     13 C         141.0888  142.4521  167.2387 C.ar    1  UNL1        0.0035
     14 C         142.1073  142.5134  166.1392 C.ar    1  UNL1       -0.0043
     15 C         139.7723  141.0845  169.0125 C.3     1  UNL1        0.4186
     16 F         138.7538  141.0232  170.1121 F       1  UNL1       -0.1659
     17 F         139.6007  139.6139  168.7716 F       1  UNL1       -0.1659
     18 F         139.9439  142.5550  169.2534 F       1  UNL1       -0.1659
     19 C         141.2877  143.4840  159.8215 C.3     1  UNL1        0.0294
     20 C         141.9073  142.5638  158.8118 C.3     1  UNL1        0.0666
     21 S         141.6252  141.0916  158.8662 S.3     1  UNL1       -0.0756
     22 C         139.0836  140.9032  160.9045 C.3     1  UNL1        0.1340
     23 N         140.4365  140.2937  161.1236 N.ar    1  UNL1       -0.2884
     24 C         141.6048  140.3802  160.1867 C.ar    1  UNL1        0.1932
     25 N         142.7490  139.6306  160.8020 N.ar    1  UNL1       -0.1221
     26 N         142.2880  139.0807  162.1193 N.ar    1  UNL1       -0.1282
     27 C         140.8588  139.4905  162.3180 C.ar    1  UNL1        0.1683
     28 C         140.0023  139.1558  163.5031 C.ar    1  UNL1        0.0551
     29 C         139.3117  140.2498  164.2623 C.ar    1  UNL1        0.0069
     30 C         138.4552  139.9152  165.4473 C.ar    1  UNL1        0.0298
     31 C         138.2893  138.4865  165.8732 C.ar    1  UNL1        0.1492
     32 N         138.9798  137.3925  165.1140 N.ar    1  UNL1       -0.2334
     33 C         139.8363  137.7272  163.9290 C.ar    1  UNL1        0.1026
     34 C         137.4327  138.1518  167.0583 C.1     1  UNL1        0.1198
     35 N         136.5762  137.8172  168.2433 N.1     1  UNL1       -0.1893
@<TRIPOS>BOND
     1    22    23    1
     2    23    24   ar
     3    24    21    1
     4    21    20    1
     5    20    19    1
     6    19     1    1
     7     1     2    1
     8     2     3    1
     9     3     4    1
    10     5     4    1
    11     5     6    1
    12     6     7    1
    13     7     9    1
    14     9    10   ar
    15    10    11   ar
    16    11    12   ar
    17    12    15    1
    18    15    16    1
    19    15    17    1
    20    15    18    1
    21    12    13   ar
    22    13    14   ar
    23     5     8    1
    24    24    25   ar
    25    25    26   ar
    26    26    27   ar
    27    27    28    1
    28    28    29   ar
    29    29    30   ar
    30    30    31   ar
    31    31    34    1
    32    34    35    3
    33    31    32   ar
    34    32    33   ar
    35    27    23   ar
    36    33    28   ar
    37     8     2    1
    38     7     5    1
    39    14     9   ar
@<TRIPOS>MOLECULE
*****
 35 39 0 0 0
SMALL
GASTEIGER

@<TRIPOS>ATOM
      1 C         139.6949  142.1326  158.7487 C.3     1  UNL1        0.0730
      2 N         140.1836  143.1455  159.7413 N.3     1  UNL1       -0.2726
      3 C         140.0567  144.6349  159.6164 C.3     1  UNL1        0.0721
      4 C         140.6797  145.2566  160.8310 C.3     1  UNL1        0.0190
      5 C         141.1917  144.1515  161.7066 C.3     1  UNL1        0.0201
      6 C         141.7313  145.0433  162.7853 C.3     1  UNL1        0.0061
      7 C         141.8583  143.5539  162.9102 C.3     1  UNL1        0.0237
      8 C         140.8851  142.8467  161.0331 C.3     1  UNL1        0.0724
      9 C         142.3163  142.3490  163.6772 C.ar    1  UNL1       -0.0225
     10 C         143.1034  142.5200  164.9426 C.ar    1  UNL1       -0.0043
     11 C         143.5615  141.3151  165.7096 C.ar    1  UNL1        0.0035
     12 C         143.2325  139.9391  165.2111 C.ar    1  UNL1        0.0714
     13 C         142.4454  139.7681  163.9457 C.ar    1  UNL1        0.0035
     14 C         141.9873  140.9730  163.1787 C.ar    1  UNL1       -0.0043
     15 C         143.6906  138.7342  165.9781 C.3     1  UNL1        0.4186
     16 F         144.1487  137.5292  166.7452 F       1  UNL1       -0.1659
     17 F         145.0166  138.7935  165.2794 F       1  UNL1       -0.1659
     18 F         142.3646  138.6748  166.6768 F       1  UNL1       -0.1659
     19 C         138.4017  141.4113  158.9882 C.3     1  UNL1        0.0294
     20 C         138.3900  140.1331  159.7732 C.3     1  UNL1        0.0666
     21 S         137.4577  139.9768  160.9378 S.3     1  UNL1       -0.0756
     22 C         137.8366  141.7850  163.6279 C.3     1  UNL1        0.1340
     23 N         138.1554  140.3253  163.4945 N.ar    1  UNL1       -0.2884
     24 C         137.9813  139.4942  162.2580 C.ar    1  UNL1        0.1932
     25 N         138.4226  138.0957  162.5735 N.ar    1  UNL1       -0.1221
     26 N         138.8695  138.0625  164.0050 N.ar    1  UNL1       -0.1282
     27 C         138.7044  139.4405  164.5743 C.ar    1  UNL1        0.1683
     28 C         139.0310  139.8599  165.9770 C.ar    1  UNL1        0.0551
     29 C         139.9089  141.0520  166.2182 C.ar    1  UNL1        0.0069
     30 C         140.2354  141.4714  167.6208 C.ar    1  UNL1        0.0298
     31 C         139.6839  140.6987  168.7823 C.ar    1  UNL1        0.1492
     32 N         138.8060  139.5066  168.5411 N.ar    1  UNL1       -0.2334
     33 C         138.4795  139.0872  167.1383 C.ar    1  UNL1        0.1026
     34 C         140.0105  141.1182  170.1849 C.1     1  UNL1        0.1198
     35 N         140.3370  141.5376  171.5876 N.1     1  UNL1       -0.1893
@<TRIPOS>BOND
     1    22    23    1
     2    23    24   ar
     3    24    21    1
     4    21    20    1
     5    20    19    1
     6    19     1    1
     7     1     2    1
     8     2     3    1
     9     3     4    1
    10     5     4    1
    11     5     6    1
    12     6     7    1
    13     7     9    1
    14     9    10   ar
    15    10    11   ar
    16    11    12   ar
    17    12    15    1
    18    15    16    1
    19    15    17    1
    20    15    18    1
    21    12    13   ar
    22    13    14   ar
    23     5     8    1
    24    24    25   ar
    25    25    26   ar
    26    26    27   ar
    27    27    28    1
    28    28    29   ar
    29    29    30   ar
    30    30    31   ar
    31    31    34    1
    32    34    35    3
    33    31    32   ar
    34    32    33   ar
    35    27    23   ar
    36    33    28   ar
    37     8     2    1
    38     7     5    1
    39    14     9   ar
@<TRIPOS>MOLECULE
*****
 35 39 0 0 0
SMALL
GASTEIGER

@<TRIPOS>ATOM
      1 C         143.6589  143.0709  160.5166 C.3     1  UNL1        0.0730
      2 N         142.4656  143.6688  161.2012 N.3     1  UNL1       -0.2726
      3 C         141.4429  144.5649  160.5678 C.3     1  UNL1        0.0721
      4 C         140.4308  144.9254  161.6145 C.3     1  UNL1        0.0190
      5 C         140.8279  144.2521  162.8948 C.3     1  UNL1        0.0201
      6 C         139.6827  144.7763  163.7094 C.3     1  UNL1        0.0061
      7 C         140.7053  143.8802  164.3428 C.3     1  UNL1        0.0237
      8 C         142.0855  143.4755  162.6393 C.3     1  UNL1        0.0724
      9 C         141.2250  143.1481  165.5444 C.ar    1  UNL1       -0.0225
     10 C         140.2902  142.7713  166.6553 C.ar    1  UNL1       -0.0043
     11 C         140.8099  142.0392  167.8570 C.ar    1  UNL1        0.0035
     12 C         142.2644  141.6839  167.9477 C.ar    1  UNL1        0.0714
     13 C         143.1992  142.0608  166.8367 C.ar    1  UNL1        0.0035
     14 C         142.6795  142.7929  165.6351 C.ar    1  UNL1       -0.0043
     15 C         142.7841  140.9519  169.1493 C.3     1  UNL1        0.4186
     16 F         143.3038  140.2197  170.3510 F       1  UNL1       -0.1659
     17 F         143.8588  141.9852  169.3141 F       1  UNL1       -0.1659
     18 F         141.7094  139.9185  168.9845 F       1  UNL1       -0.1659
     19 C         143.5866  142.7099  159.0625 C.3     1  UNL1        0.0294
     20 C         144.2704  141.4722  158.5620 C.3     1  UNL1        0.0666
     21 S         143.5607  140.1516  158.6104 S.3     1  UNL1       -0.0756
     22 C         140.8317  140.4610  160.3729 C.3     1  UNL1        0.1340
     23 N         142.0308  139.6385  160.7414 N.ar    1  UNL1       -0.2884
     24 C         143.2851  139.4963  159.9312 C.ar    1  UNL1        0.1932
     25 N         144.2156  138.5836  160.6738 N.ar    1  UNL1       -0.1221
     26 N         143.5363  138.1618  161.9429 N.ar    1  UNL1       -0.1282
     27 C         142.1860  138.8137  161.9847 C.ar    1  UNL1        0.1683
     28 C         141.1694  138.6667  163.0779 C.ar    1  UNL1        0.0551
     29 C         141.3513  139.3984  164.3746 C.ar    1  UNL1        0.0069
     30 C         140.3347  139.2514  165.4677 C.ar    1  UNL1        0.0298
     31 C         139.1362  138.3726  165.2640 C.ar    1  UNL1        0.1492
     32 N         138.9543  137.6409  163.9673 N.ar    1  UNL1       -0.2334
     33 C         139.9709  137.7880  162.8742 C.ar    1  UNL1        0.1026
     34 C         138.1196  138.2256  166.3572 C.1     1  UNL1        0.1198
     35 N         137.1030  138.0786  167.4503 N.1     1  UNL1       -0.1893
@<TRIPOS>BOND
     1    22    23    1
     2    23    24   ar
     3    24    21    1
     4    21    20    1
     5    20    19    1
     6    19     1    1
     7     1     2    1
     8     2     3    1
     9     3     4    1
    10     5     4    1
    11     5     6    1
    12     6     7    1
    13     7     9    1
    14     9    10   ar
    15    10    11   ar
    16    11    12   ar
    17    12    15    1
    18    15    16    1
    19    15    17    1
    20    15    18    1
    21    12    13   ar
    22    13    14   ar
    23     5     8    1
    24    24    25   ar
    25    25    26   ar
    26    26    27   ar
    27    27    28    1
    28    28    29   ar
    29    29    30   ar
    30    30    31   ar
    31    31    34    1
    32    34    35    3
    33    31    32   ar
    34    32    33   ar
    35    27    23   ar
    36    33    28   ar
    37     8     2    1
    38     7     5    1
    39    14     9   ar
@<TRIPOS>MOLECULE
*****
 35 39 0 0 0
SMALL
GASTEIGER

@<TRIPOS>ATOM
      1 C         145.0741  142.8424  164.3834 C.3     1  UNL1        0.0730
      2 N         143.7634  143.5663  164.2931 N.3     1  UNL1       -0.2726
      3 C         143.5708  144.9914  163.8665 C.3     1  UNL1        0.0721
      4 C         142.1036  145.2979  163.9233 C.3     1  UNL1        0.0190
      5 C         141.3894  144.0623  164.3851 C.3     1  UNL1        0.0201
      6 C         140.0112  144.6530  164.3436 C.3     1  UNL1        0.0061
      7 C         140.2038  143.2279  164.7702 C.3     1  UNL1        0.0237
      8 C         142.4152  142.9921  164.6137 C.3     1  UNL1        0.0724
      9 C         139.6306  141.9234  165.2389 C.ar    1  UNL1       -0.0225
     10 C         139.9453  141.4173  166.6154 C.ar    1  UNL1       -0.0043
     11 C         139.3721  140.1128  167.0841 C.ar    1  UNL1        0.0035
     12 C         138.4841  139.3145  166.1762 C.ar    1  UNL1        0.0714
     13 C         138.1694  139.8206  164.7997 C.ar    1  UNL1        0.0035
     14 C         138.7426  141.1251  164.3310 C.ar    1  UNL1       -0.0043
     15 C         137.9109  138.0100  166.6449 C.3     1  UNL1        0.4186
     16 F         137.3376  136.7054  167.1136 F       1  UNL1       -0.1659
     17 F         137.3115  138.7006  167.8340 F       1  UNL1       -0.1659
     18 F         138.5102  137.3194  165.4559 F       1  UNL1       -0.1659
     19 C         145.2496  141.5203  163.6970 C.3     1  UNL1        0.0294
     20 C         144.7013  140.2719  164.3223 C.3     1  UNL1        0.0666
     21 S         144.3293  139.1023  163.4601 S.3     1  UNL1       -0.0756
     22 C         143.1612  140.5672  160.7881 C.3     1  UNL1        0.1340
     23 N         142.3962  139.6519  161.6976 N.ar    1  UNL1       -0.2884
     24 C         142.9331  138.9786  162.9258 C.ar    1  UNL1        0.1932
     25 N         141.8288  138.1598  163.5258 N.ar    1  UNL1       -0.1221
     26 N         140.6094  138.3271  162.6685 N.ar    1  UNL1       -0.1282
     27 C         140.9600  139.2493  161.5386 C.ar    1  UNL1        0.1683
     28 C         140.0366  139.6912  160.4422 C.ar    1  UNL1        0.0551
     29 C         140.1751  139.1115  159.0657 C.ar    1  UNL1        0.0069
     30 C         139.2517  139.5534  157.9693 C.ar    1  UNL1        0.0298
     31 C         138.1898  140.5751  158.2496 C.ar    1  UNL1        0.1492
     32 N         138.0513  141.1549  159.6260 N.ar    1  UNL1       -0.2334
     33 C         138.9747  140.7129  160.7224 C.ar    1  UNL1        0.1026
     34 C         137.2664  141.0171  157.1532 C.1     1  UNL1        0.1198
     35 N         136.3430  141.4590  156.0568 N.1     1  UNL1       -0.1893
@<TRIPOS>BOND
     1    22    23    1
     2    23    24   ar
     3    24    21    1
     4    21    20    1
     5    20    19    1
     6    19     1    1
     7     1     2    1
     8     2     3    1
     9     3     4    1
    10     5     4    1
    11     5     6    1
    12     6     7    1
    13     7     9    1
    14     9    10   ar
    15    10    11   ar
    16    11    12   ar
    17    12    15    1
    18    15    16    1
    19    15    17    1
    20    15    18    1
    21    12    13   ar
    22    13    14   ar
    23     5     8    1
    24    24    25   ar
    25    25    26   ar
    26    26    27   ar
    27    27    28    1
    28    28    29   ar
    29    29    30   ar
    30    30    31   ar
    31    31    34    1
    32    34    35    3
    33    31    32   ar
    34    32    33   ar
    35    27    23   ar
    36    33    28   ar
    37     8     2    1
    38     7     5    1
    39    14     9   ar
@<TRIPOS>MOLECULE
*****
 35 39 0 0 0
SMALL
GASTEIGER

@<TRIPOS>ATOM
      1 C         142.7330  140.4076  158.8110 C.3     1  UNL1        0.0730
      2 N         141.3980  139.8269  159.1722 N.3     1  UNL1       -0.2726
      3 C         140.7564  138.6292  158.5367 C.3     1  UNL1        0.0721
      4 C         139.4321  138.4041  159.2042 C.3     1  UNL1        0.0190
      5 C         139.2552  139.4626  160.2522 C.3     1  UNL1        0.0201
      6 C         137.9090  138.9957  160.7210 C.3     1  UNL1        0.0061
      7 C         138.5506  140.1934  161.3565 C.3     1  UNL1        0.0237
      8 C         140.4702  140.3420  160.2324 C.3     1  UNL1        0.0724
      9 C         138.5143  141.3068  162.3610 C.ar    1  UNL1       -0.0225
     10 C         138.8162  141.0260  163.8032 C.ar    1  UNL1       -0.0043
     11 C         138.7799  142.1394  164.8077 C.ar    1  UNL1        0.0035
     12 C         138.4417  143.5336  164.3699 C.ar    1  UNL1        0.0714
     13 C         138.1398  143.8145  162.9277 C.ar    1  UNL1        0.0035
     14 C         138.1761  142.7011  161.9232 C.ar    1  UNL1       -0.0043
     15 C         138.4054  144.6470  165.3744 C.3     1  UNL1        0.4186
     16 F         138.3691  145.7605  166.3789 F       1  UNL1       -0.1659
     17 F         136.9118  144.5307  165.4493 F       1  UNL1       -0.1659
     18 F         139.8990  144.7633  165.2995 F       1  UNL1       -0.1659
     19 C         143.6922  140.8116  159.8911 C.3     1  UNL1        0.0294
     20 C         144.3123  142.1774  159.8713 C.3     1  UNL1        0.0666
     21 S         144.6907  142.8479  161.1586 S.3     1  UNL1       -0.0756
     22 C         141.9987  142.9545  163.0002 C.3     1  UNL1        0.1340
     23 N         143.2488  142.1854  163.3096 N.ar    1  UNL1       -0.2884
     24 C         144.4862  142.1364  162.4632 C.ar    1  UNL1        0.1932
     25 N         145.4831  141.2510  163.1503 N.ar    1  UNL1       -0.1221
     26 N         144.8619  140.7528  164.4215 N.ar    1  UNL1       -0.1282
     27 C         143.4810  141.3302  164.5200 C.ar    1  UNL1        0.1683
     28 C         142.5039  141.0940  165.6333 C.ar    1  UNL1        0.0551
     29 C         142.2436  142.1714  166.6440 C.ar    1  UNL1        0.0069
     30 C         141.2665  141.9352  167.7573 C.ar    1  UNL1        0.0298
     31 C         140.5497  140.6215  167.8599 C.ar    1  UNL1        0.1492
     32 N         140.8100  139.5441  166.8492 N.ar    1  UNL1       -0.2334
     33 C         141.7871  139.7804  165.7359 C.ar    1  UNL1        0.1026
     34 C         139.5726  140.3853  168.9732 C.1     1  UNL1        0.1198
     35 N         138.5955  140.1491  170.0865 N.1     1  UNL1       -0.1893
@<TRIPOS>BOND
     1    22    23    1
     2    23    24   ar
     3    24    21    1
     4    21    20    1
     5    20    19    1
     6    19     1    1
     7     1     2    1
     8     2     3    1
     9     3     4    1
    10     5     4    1
    11     5     6    1
    12     6     7    1
    13     7     9    1
    14     9    10   ar
    15    10    11   ar
    16    11    12   ar
    17    12    15    1
    18    15    16    1
    19    15    17    1
    20    15    18    1
    21    12    13   ar
    22    13    14   ar
    23     5     8    1
    24    24    25   ar
    25    25    26   ar
    26    26    27   ar
    27    27    28    1
    28    28    29   ar
    29    29    30   ar
    30    30    31   ar
    31    31    34    1
    32    34    35    3
    33    31    32   ar
    34    32    33   ar
    35    27    23   ar
    36    33    28   ar
    37     8     2    1
    38     7     5    1
    39    14     9   ar
@<TRIPOS>MOLECULE
*****
 35 39 0 0 0
SMALL
GASTEIGER

@<TRIPOS>ATOM
      1 C         142.5652  142.1146  168.1218 C.3     1  UNL1        0.0730
      2 N         141.2940  141.3419  168.3139 N.3     1  UNL1       -0.2726
      3 C         140.5655  141.1515  169.6112 C.3     1  UNL1        0.0721
      4 C         139.3493  140.3159  169.3414 C.3     1  UNL1        0.0190
      5 C         139.3262  139.9900  167.8775 C.3     1  UNL1        0.0201
      6 C         138.0595  139.1875  167.9155 C.3     1  UNL1        0.0061
      7 C         138.7880  139.3780  166.6182 C.3     1  UNL1        0.0237
      8 C         140.5280  140.6241  167.2424 C.3     1  UNL1        0.0724
      9 C         138.8979  139.1346  165.1421 C.ar    1  UNL1       -0.0225
     10 C         138.2236  140.0636  164.1766 C.ar    1  UNL1       -0.0043
     11 C         138.3335  139.8202  162.7005 C.ar    1  UNL1        0.0035
     12 C         139.1176  138.6478  162.1901 C.ar    1  UNL1        0.0714
     13 C         139.7919  137.7188  163.1557 C.ar    1  UNL1        0.0035
     14 C         139.6820  137.9622  164.6317 C.ar    1  UNL1       -0.0043
     15 C         139.2275  138.4045  160.7141 C.3     1  UNL1        0.4186
     16 F         139.3374  138.1611  159.2380 F       1  UNL1       -0.1659
     17 F         140.5418  137.7132  160.9259 F       1  UNL1       -0.1659
     18 F         137.9133  139.0957  160.5023 F       1  UNL1       -0.1659
     19 C         143.3499  141.9640  166.8523 C.3     1  UNL1        0.0294
     20 C         143.6302  143.1639  165.9969 C.3     1  UNL1        0.0666
     21 S         144.3349  143.0001  164.6829 S.3     1  UNL1       -0.0756
     22 C         141.9028  141.2313  163.4157 C.3     1  UNL1        0.1340
     23 N         142.4916  142.4754  162.8195 N.ar    1  UNL1       -0.2884
     24 C         143.6095  143.2884  163.4019 C.ar    1  UNL1        0.1932
     25 N         143.8748  144.4404  162.4786 N.ar    1  UNL1       -0.1221
     26 N         142.9209  144.3393  161.3254 N.ar    1  UNL1       -0.1282
     27 C         142.0660  143.1249  161.5361 C.ar    1  UNL1        0.1683
     28 C         140.9767  142.6443  160.6236 C.ar    1  UNL1        0.0551
     29 C         141.3001  141.7061  159.4988 C.ar    1  UNL1        0.0069
     30 C         140.2108  141.2255  158.5863 C.ar    1  UNL1        0.0298
     31 C         138.7982  141.6833  158.7987 C.ar    1  UNL1        0.1492
     32 N         138.4749  142.6216  159.9235 N.ar    1  UNL1       -0.2334
     33 C         139.5642  143.1021  160.8359 C.ar    1  UNL1        0.1026
     34 C         137.7089  141.2028  157.8862 C.1     1  UNL1        0.1198
     35 N         136.6197  140.7222  156.9738 N.1     1  UNL1       -0.1893
@<TRIPOS>BOND
     1    22    23    1
     2    23    24   ar
     3    24    21    1
     4    21    20    1
     5    20    19    1
     6    19     1    1
     7     1     2    1
     8     2     3    1
     9     3     4    1
    10     5     4    1
    11     5     6    1
    12     6     7    1
    13     7     9    1
    14     9    10   ar
    15    10    11   ar
    16    11    12   ar
    17    12    15    1
    18    15    16    1
    19    15    17    1
    20    15    18    1
    21    12    13   ar
    22    13    14   ar
    23     5     8    1
    24    24    25   ar
    25    25    26   ar
    26    26    27   ar
    27    27    28    1
    28    28    29   ar
    29    29    30   ar
    30    30    31   ar
    31    31    34    1
    32    34    35    3
    33    31    32   ar
    34    32    33   ar
    35    27    23   ar
    36    33    28   ar
    37     8     2    1
    38     7     5    1
    39    14     9   ar
