@<TRIPOS>MOLECULE
*****
 29 31 0 0 0
SMALL
GASTEIGER

@<TRIPOS>ATOM
      1 C         140.5641  139.3506  163.8729 C.ar    1  UNL1        0.0184
      2 C         141.2827  139.3607  162.5563 C.ar    1  UNL1        0.0200
      3 C         140.6618  138.7062  161.3579 C.ar    1  UNL1        0.1109
      4 C         139.3222  138.0418  161.4761 C.ar    1  UNL1        0.0201
      5 C         138.6036  138.0317  162.7927 C.ar    1  UNL1        0.0197
      6 C         139.2245  138.6861  163.9911 C.ar    1  UNL1        0.1058
      7 C         143.0478  141.9684  168.6665 C.3     1  UNL1        0.0310
      8 C         142.4269  141.3139  167.4681 C.ar    1  UNL1       -0.0218
      9 C         141.6419  142.1344  166.4881 C.ar    1  UNL1       -0.0043
     10 C         141.0210  141.4800  165.2897 C.ar    1  UNL1       -0.0003
     11 C         141.1850  140.0051  165.0713 C.ar    1  UNL1        0.0013
     12 C         141.9700  139.1846  166.0514 C.ar    1  UNL1       -0.0003
     13 C         142.5909  139.8390  167.2498 C.ar    1  UNL1       -0.0043
     14 S         138.5058  138.6761  165.3077 S.O2    1  UNL1        0.0104
     15 C         137.7871  138.6661  166.6243 C.3     1  UNL1        0.1816
     16 O         138.0189  140.0717  165.0526 O.2     1  UNL1       -0.1686
     17 O         138.9927  137.2805  165.5629 O.2     1  UNL1       -0.1686
     18 S         141.3805  138.7163  160.0413 S.O2    1  UNL1        0.0330
     19 O         142.6637  139.0468  160.7442 O.2     1  UNL1       -0.1638
     20 O         140.0973  138.3858  159.3384 O.2     1  UNL1       -0.1638
     21 C         142.0991  138.7264  158.7247 C.ar    1  UNL1        0.1394
     22 C         142.7708  139.9110  158.0959 C.ar    1  UNL1        0.0256
     23 C         143.3591  139.4704  156.7883 C.ar    1  UNL1        0.0054
     24 C         143.0509  138.0133  156.6090 C.ar    1  UNL1        0.0242
     25 S         142.2722  137.5535  157.8058 S.2     1  UNL1       -0.0714
     26 C         143.4511  137.1650  155.4385 C.3     1  UNL1        0.0988
     27 N         144.8500  136.6323  155.3418 N.3     1  UNL1       -0.3170
     28 H         145.5016  137.4078  155.2213 H       1  UNL1        0.1192
     29 H         144.9195  136.0025  154.5424 H       1  UNL1        0.1192
@<TRIPOS>BOND
     1     7     8    1
     2     8     9   ar
     3     9    10   ar
     4    10    11   ar
     5    11     1    1
     6     1     2   ar
     7     2     3   ar
     8     3    18    1
     9    18    19    2
    10    18    20    2
    11    18    21    1
    12    21    22   ar
    13    22    23   ar
    14    23    24   ar
    15    24    26    1
    16    26    27    1
    17    24    25   ar
    18     3     4   ar
    19     4     5   ar
    20     5     6   ar
    21     6    14    1
    22    14    15    1
    23    14    16    2
    24    14    17    2
    25    11    12   ar
    26    12    13   ar
    27    13     8   ar
    28     6     1   ar
    29    25    21   ar
    30    27    28    1
    31    27    29    1
@<TRIPOS>MOLECULE
*****
 29 31 0 0 0
SMALL
GASTEIGER

@<TRIPOS>ATOM
      1 C         140.4441  142.8985  161.7472 C.ar    1  UNL1        0.0184
      2 C         140.2941  142.2919  163.1108 C.ar    1  UNL1        0.0200
      3 C         140.6450  143.0918  164.3303 C.ar    1  UNL1        0.1109
      4 C         141.1458  144.4983  164.1861 C.ar    1  UNL1        0.0201
      5 C         141.2958  145.1050  162.8225 C.ar    1  UNL1        0.0197
      6 C         140.9449  144.3051  161.6030 C.ar    1  UNL1        0.1058
      7 C         139.0406  139.6990  156.8694 C.3     1  UNL1        0.0310
      8 C         139.3915  140.4989  158.0888 C.ar    1  UNL1       -0.0218
      9 C         138.3558  141.3666  158.7402 C.ar    1  UNL1       -0.0043
     10 C         138.7067  142.1665  159.9596 C.ar    1  UNL1       -0.0003
     11 C         140.0932  142.0987  160.5277 C.ar    1  UNL1        0.0013
     12 C         141.1289  141.2309  159.8764 C.ar    1  UNL1       -0.0003
     13 C         140.7780  140.4310  158.6570 C.ar    1  UNL1       -0.0043
     14 S         141.0949  144.9118  160.2394 S.O2    1  UNL1        0.0104
     15 C         141.2449  145.5184  158.8758 C.3     1  UNL1        0.1816
     16 O         139.6975  145.4500  160.3252 O.2     1  UNL1       -0.1686
     17 O         142.4923  144.3735  160.1536 O.2     1  UNL1       -0.1686
     18 S         140.4949  142.4851  165.6939 S.O2    1  UNL1        0.0330
     19 O         139.7411  143.6987  166.1509 O.2     1  UNL1       -0.1638
     20 O         141.2488  141.2716  165.2369 O.2     1  UNL1       -0.1638
     21 C         140.3450  141.8784  167.0575 C.ar    1  UNL1        0.1394
     22 C         139.7684  140.5278  167.3630 C.ar    1  UNL1        0.0256
     23 C         139.8123  140.3304  168.8493 C.ar    1  UNL1        0.0054
     24 C         140.4161  141.5592  169.4624 C.ar    1  UNL1        0.0242
     25 S         140.7452  142.5159  168.3550 S.2     1  UNL1       -0.0714
     26 C         140.6496  141.7906  170.9259 C.3     1  UNL1        0.0988
     27 N         140.7027  140.6263  171.8702 N.3     1  UNL1       -0.3170
     28 H         139.7863  140.1804  171.9120 H       1  UNL1        0.1192
     29 H         140.9639  140.9544  172.8000 H       1  UNL1        0.1192
@<TRIPOS>BOND
     1     7     8    1
     2     8     9   ar
     3     9    10   ar
     4    10    11   ar
     5    11     1    1
     6     1     2   ar
     7     2     3   ar
     8     3    18    1
     9    18    19    2
    10    18    20    2
    11    18    21    1
    12    21    22   ar
    13    22    23   ar
    14    23    24   ar
    15    24    26    1
    16    26    27    1
    17    24    25   ar
    18     3     4   ar
    19     4     5   ar
    20     5     6   ar
    21     6    14    1
    22    14    15    1
    23    14    16    2
    24    14    17    2
    25    11    12   ar
    26    12    13   ar
    27    13     8   ar
    28     6     1   ar
    29    25    21   ar
    30    27    28    1
    31    27    29    1
@<TRIPOS>MOLECULE
*****
 29 31 0 0 0
SMALL
GASTEIGER

@<TRIPOS>ATOM
      1 C         139.4459  140.9497  162.0971 C.ar    1  UNL1        0.0184
      2 C         139.9715  139.9138  161.1481 C.ar    1  UNL1        0.0200
      3 C         139.9867  140.1867  159.6732 C.ar    1  UNL1        0.1109
      4 C         139.4764  141.4955  159.1473 C.ar    1  UNL1        0.0201
      5 C         138.9508  142.5313  160.0963 C.ar    1  UNL1        0.0197
      6 C         138.9356  142.2585  161.5712 C.ar    1  UNL1        0.1058
      7 C         139.3849  139.8582  167.9967 C.3     1  UNL1        0.0310
      8 C         139.4002  140.1311  166.5218 C.ar    1  UNL1       -0.0218
      9 C         140.5164  140.9312  165.9186 C.ar    1  UNL1       -0.0043
     10 C         140.5316  141.2041  164.4437 C.ar    1  UNL1       -0.0003
     11 C         139.4307  140.6768  163.5720 C.ar    1  UNL1        0.0013
     12 C         138.3145  139.8767  164.1752 C.ar    1  UNL1       -0.0003
     13 C         138.2992  139.6038  165.6501 C.ar    1  UNL1       -0.0043
     14 S         138.4099  143.2945  162.5202 S.O2    1  UNL1        0.0104
     15 C         137.8844  144.3304  163.4692 C.3     1  UNL1        0.1816
     16 O         139.7230  144.0169  162.4588 O.2     1  UNL1       -0.1686
     17 O         137.0968  142.5720  162.5816 O.2     1  UNL1       -0.1686
     18 S         140.5124  139.1507  158.7242 S.O2    1  UNL1        0.0330
     19 O         141.9163  139.5747  159.0389 O.2     1  UNL1       -0.1638
     20 O         139.1084  138.7267  158.4096 O.2     1  UNL1       -0.1638
     21 C         141.0379  138.1148  157.7753 C.ar    1  UNL1        0.1394
     22 C         140.2377  137.3790  156.7416 C.ar    1  UNL1        0.0256
     23 C         141.1612  136.4422  156.0208 C.ar    1  UNL1        0.0054
     24 C         142.5322  136.5990  156.6090 C.ar    1  UNL1        0.0242
     25 S         142.4560  137.6327  157.6933 S.2     1  UNL1       -0.0714
     26 C         143.7632  135.8530  156.1870 C.3     1  UNL1        0.0988
     27 N         144.7875  136.5249  155.3213 N.3     1  UNL1       -0.3170
     28 H         144.3834  136.7196  154.4052 H       1  UNL1        0.1192
     29 H         145.5958  135.9124  155.2132 H       1  UNL1        0.1192
@<TRIPOS>BOND
     1     7     8    1
     2     8     9   ar
     3     9    10   ar
     4    10    11   ar
     5    11     1    1
     6     1     2   ar
     7     2     3   ar
     8     3    18    1
     9    18    19    2
    10    18    20    2
    11    18    21    1
    12    21    22   ar
    13    22    23   ar
    14    23    24   ar
    15    24    26    1
    16    26    27    1
    17    24    25   ar
    18     3     4   ar
    19     4     5   ar
    20     5     6   ar
    21     6    14    1
    22    14    15    1
    23    14    16    2
    24    14    17    2
    25    11    12   ar
    26    12    13   ar
    27    13     8   ar
    28     6     1   ar
    29    25    21   ar
    30    27    28    1
    31    27    29    1
@<TRIPOS>MOLECULE
*****
 29 31 0 0 0
SMALL
GASTEIGER

@<TRIPOS>ATOM
      1 C         140.5740  139.3578  163.9676 C.ar    1  UNL1        0.0184
      2 C         141.2829  139.3858  162.6461 C.ar    1  UNL1        0.0200
      3 C         140.6500  138.7540  161.4419 C.ar    1  UNL1        0.1109
      4 C         139.3081  138.0941  161.5592 C.ar    1  UNL1        0.0201
      5 C         138.5991  138.0661  162.8808 C.ar    1  UNL1        0.0197
      6 C         139.2321  138.6980  164.0850 C.ar    1  UNL1        0.1058
      7 C         143.1058  141.8853  168.7844 C.3     1  UNL1        0.0310
      8 C         142.4729  141.2535  167.5802 C.ar    1  UNL1       -0.0218
      9 C         141.7007  142.0967  166.6094 C.ar    1  UNL1       -0.0043
     10 C         141.0677  141.4649  165.4052 C.ar    1  UNL1       -0.0003
     11 C         141.2069  139.9897  165.1718 C.ar    1  UNL1        0.0013
     12 C         141.9792  139.1465  166.1427 C.ar    1  UNL1       -0.0003
     13 C         142.6121  139.7783  167.3469 C.ar    1  UNL1       -0.0043
     14 S         138.5230  138.6700  165.4066 S.O2    1  UNL1        0.0104
     15 C         137.8141  138.6419  166.7282 C.3     1  UNL1        0.1816
     16 O         139.0387  137.2833  165.6538 O.2     1  UNL1       -0.1686
     17 O         138.0074  140.0567  165.1594 O.2     1  UNL1       -0.1686
     18 S         141.3590  138.7820  160.1203 S.O2    1  UNL1        0.0330
     19 O         142.6391  139.1414  160.8146 O.2     1  UNL1       -0.1638
     20 O         140.0789  138.4225  159.4260 O.2     1  UNL1       -0.1638
     21 C         142.0679  138.8100  158.7987 C.ar    1  UNL1        0.1394
     22 C         141.9444  137.7855  157.7100 C.ar    1  UNL1        0.0256
     23 C         142.8250  138.2097  156.5722 C.ar    1  UNL1        0.0054
     24 C         143.4928  139.4964  156.9578 C.ar    1  UNL1        0.0242
     25 S         143.0249  139.8673  158.3338 S.2     1  UNL1       -0.0714
     26 C         144.4590  140.2753  156.1152 C.3     1  UNL1        0.0988
     27 N         145.8901  139.8372  156.0160 N.3     1  UNL1       -0.3170
     28 H         146.3397  139.9356  156.9263 H       1  UNL1        0.1192
     29 H         146.3765  140.4170  155.3322 H       1  UNL1        0.1192
@<TRIPOS>BOND
     1     7     8    1
     2     8     9   ar
     3     9    10   ar
     4    10    11   ar
     5    11     1    1
     6     1     2   ar
     7     2     3   ar
     8     3    18    1
     9    18    19    2
    10    18    20    2
    11    18    21    1
    12    21    22   ar
    13    22    23   ar
    14    23    24   ar
    15    24    26    1
    16    26    27    1
    17    24    25   ar
    18     3     4   ar
    19     4     5   ar
    20     5     6   ar
    21     6    14    1
    22    14    15    1
    23    14    16    2
    24    14    17    2
    25    11    12   ar
    26    12    13   ar
    27    13     8   ar
    28     6     1   ar
    29    25    21   ar
    30    27    28    1
    31    27    29    1
@<TRIPOS>MOLECULE
*****
 29 31 0 0 0
SMALL
GASTEIGER

@<TRIPOS>ATOM
      1 C         140.7593  141.8896  163.6642 C.ar    1  UNL1        0.0184
      2 C         140.3675  142.3302  162.2850 C.ar    1  UNL1        0.0200
      3 C         141.0300  143.5233  161.6623 C.ar    1  UNL1        0.1109
      4 C         142.0842  144.2757  162.4188 C.ar    1  UNL1        0.0201
      5 C         142.4760  143.8351  163.7980 C.ar    1  UNL1        0.0197
      6 C         141.8136  142.6420  164.4207 C.ar    1  UNL1        0.1058
      7 C         138.1096  137.1172  166.1549 C.3     1  UNL1        0.0310
      8 C         138.7720  138.3103  165.5322 C.ar    1  UNL1       -0.0218
      9 C         138.1597  139.6714  165.6820 C.ar    1  UNL1       -0.0043
     10 C         138.8222  140.8645  165.0594 C.ar    1  UNL1       -0.0003
     11 C         140.0969  140.6965  164.2869 C.ar    1  UNL1        0.0013
     12 C         140.7092  139.3354  164.1370 C.ar    1  UNL1       -0.0003
     13 C         140.0468  138.1423  164.7597 C.ar    1  UNL1       -0.0043
     14 S         142.2054  142.2013  165.8000 S.O2    1  UNL1        0.0104
     15 C         142.5972  141.7607  167.1792 C.3     1  UNL1        0.1816
     16 O         141.0753  143.0014  166.3766 O.2     1  UNL1       -0.1686
     17 O         143.3356  141.4012  165.2234 O.2     1  UNL1       -0.1686
     18 S         140.6381  143.9640  160.2830 S.O2    1  UNL1        0.0330
     19 O         141.9013  144.7662  160.1804 O.2     1  UNL1       -0.1638
     20 O         139.3749  143.1617  160.3856 O.2     1  UNL1       -0.1638
     21 C         140.2463  144.4046  158.9038 C.ar    1  UNL1        0.1394
     22 C         139.6615  143.5326  157.8325 C.ar    1  UNL1        0.0256
     23 C         139.4241  144.3836  156.6203 C.ar    1  UNL1        0.0054
     24 C         139.8623  145.7816  156.9425 C.ar    1  UNL1        0.0242
     25 S         140.3703  145.7945  158.3537 S.2     1  UNL1       -0.0714
     26 C         139.8027  146.9598  156.0160 C.3     1  UNL1        0.0988
     27 N         138.8923  148.1113  156.3245 N.3     1  UNL1       -0.3170
     28 H         137.9220  147.8017  156.2695 H       1  UNL1        0.1192
     29 H         139.0494  148.8593  155.6491 H       1  UNL1        0.1192
@<TRIPOS>BOND
     1     7     8    1
     2     8     9   ar
     3     9    10   ar
     4    10    11   ar
     5    11     1    1
     6     1     2   ar
     7     2     3   ar
     8     3    18    1
     9    18    19    2
    10    18    20    2
    11    18    21    1
    12    21    22   ar
    13    22    23   ar
    14    23    24   ar
    15    24    26    1
    16    26    27    1
    17    24    25   ar
    18     3     4   ar
    19     4     5   ar
    20     5     6   ar
    21     6    14    1
    22    14    15    1
    23    14    16    2
    24    14    17    2
    25    11    12   ar
    26    12    13   ar
    27    13     8   ar
    28     6     1   ar
    29    25    21   ar
    30    27    28    1
    31    27    29    1
@<TRIPOS>MOLECULE
*****
 29 31 0 0 0
SMALL
GASTEIGER

@<TRIPOS>ATOM
      1 C         140.2633  140.3888  162.3878 C.ar    1  UNL1        0.0184
      2 C         140.3502  140.6397  163.8641 C.ar    1  UNL1        0.0200
      3 C         140.0240  139.5413  164.8321 C.ar    1  UNL1        0.1109
      4 C         139.6108  138.1919  164.3239 C.ar    1  UNL1        0.0201
      5 C         139.5239  137.9409  162.8476 C.ar    1  UNL1        0.0197
      6 C         139.8501  139.0394  161.8796 C.ar    1  UNL1        0.1058
      7 C         141.5682  144.7824  158.5158 C.3     1  UNL1        0.0310
      8 C         141.2420  143.6840  159.4838 C.ar    1  UNL1       -0.0218
      9 C         139.8335  143.5041  159.9672 C.ar    1  UNL1       -0.0043
     10 C         139.5072  142.4057  160.9352 C.ar    1  UNL1       -0.0003
     11 C         140.5895  141.4872  161.4198 C.ar    1  UNL1        0.0013
     12 C         141.9980  141.6671  160.9365 C.ar    1  UNL1       -0.0003
     13 C         142.3243  142.7655  159.9685 C.ar    1  UNL1       -0.0043
     14 S         139.7631  138.7883  160.4032 S.O2    1  UNL1        0.0104
     15 C         139.6761  138.5373  158.9270 C.3     1  UNL1        0.1816
     16 O         138.3328  139.2402  160.4107 O.2     1  UNL1       -0.1686
     17 O         141.1934  138.3365  160.3958 O.2     1  UNL1       -0.1686
     18 S         140.1109  139.7923  166.3085 S.O2    1  UNL1        0.0330
     19 O         141.3140  140.6611  166.0899 O.2     1  UNL1       -0.1638
     20 O         138.9079  138.9236  166.5270 O.2     1  UNL1       -0.1638
     21 C         140.1979  140.0433  167.7847 C.ar    1  UNL1        0.1394
     22 C         139.0457  140.0633  168.7450 C.ar    1  UNL1        0.0256
     23 C         139.5880  140.3508  170.1137 C.ar    1  UNL1        0.0054
     24 C         141.0753  140.5084  169.9993 C.ar    1  UNL1        0.0242
     25 S         141.4522  140.3184  168.5599 S.2     1  UNL1       -0.0714
     26 C         142.0199  140.8041  171.1264 C.3     1  UNL1        0.0988
     27 N         141.9969  142.1486  171.7910 N.3     1  UNL1       -0.3170
     28 H         142.2961  142.8618  171.1260 H       1  UNL1        0.1192
     29 H         142.6294  142.1432  172.5912 H       1  UNL1        0.1192
@<TRIPOS>BOND
     1     7     8    1
     2     8     9   ar
     3     9    10   ar
     4    10    11   ar
     5    11     1    1
     6     1     2   ar
     7     2     3   ar
     8     3    18    1
     9    18    19    2
    10    18    20    2
    11    18    21    1
    12    21    22   ar
    13    22    23   ar
    14    23    24   ar
    15    24    26    1
    16    26    27    1
    17    24    25   ar
    18     3     4   ar
    19     4     5   ar
    20     5     6   ar
    21     6    14    1
    22    14    15    1
    23    14    16    2
    24    14    17    2
    25    11    12   ar
    26    12    13   ar
    27    13     8   ar
    28     6     1   ar
    29    25    21   ar
    30    27    28    1
    31    27    29    1
@<TRIPOS>MOLECULE
*****
 29 31 0 0 0
SMALL
GASTEIGER

@<TRIPOS>ATOM
      1 C         142.8622  137.5020  157.2857 C.ar    1  UNL1        0.0184
      2 C         142.6098  137.3286  158.7540 C.ar    1  UNL1        0.0200
      3 C         142.8262  138.4781  159.6931 C.ar    1  UNL1        0.1109
      4 C         143.2952  139.8009  159.1638 C.ar    1  UNL1        0.0201
      5 C         143.5476  139.9743  157.6954 C.ar    1  UNL1        0.0197
      6 C         143.3311  138.8248  156.7563 C.ar    1  UNL1        0.1058
      7 C         141.9963  132.9041  153.5294 C.3     1  UNL1        0.0310
      8 C         142.2128  134.0535  154.4685 C.ar    1  UNL1       -0.0218
      9 C         141.1113  135.0428  154.7094 C.ar    1  UNL1       -0.0043
     10 C         141.3278  136.1923  155.6485 C.ar    1  UNL1       -0.0003
     11 C         142.6457  136.3525  156.3466 C.ar    1  UNL1        0.0013
     12 C         143.7471  135.3632  156.1056 C.ar    1  UNL1       -0.0003
     13 C         143.5307  134.2137  155.1666 C.ar    1  UNL1       -0.0043
     14 S         143.5836  138.9982  155.2879 S.O2    1  UNL1        0.0104
     15 C         143.8361  139.1715  153.8195 C.3     1  UNL1        0.1816
     16 O         144.9947  138.5252  155.4747 O.2     1  UNL1       -0.1686
     17 O         142.1725  139.4712  155.1011 O.2     1  UNL1       -0.1686
     18 S         142.5738  138.3047  161.1615 S.O2    1  UNL1        0.0330
     19 O         143.9221  137.6663  161.3180 O.2     1  UNL1       -0.1638
     20 O         141.2255  138.9431  161.0051 O.2     1  UNL1       -0.1638
     21 C         142.3213  138.1313  162.6299 C.ar    1  UNL1        0.1394
     22 C         141.1983  137.3500  163.2452 C.ar    1  UNL1        0.0256
     23 C         141.3304  137.4446  164.7364 C.ar    1  UNL1        0.0054
     24 C         142.5350  138.2845  165.0427 C.ar    1  UNL1        0.0242
     25 S         143.1473  138.7088  163.7408 S.2     1  UNL1       -0.0714
     26 C         143.0388  138.6378  166.4107 C.3     1  UNL1        0.0988
     27 N         144.1297  137.8243  167.0415 N.3     1  UNL1       -0.3170
     28 H         143.7880  136.8807  167.2239 H       1  UNL1        0.1192
     29 H         144.4135  138.2588  167.9196 H       1  UNL1        0.1192
@<TRIPOS>BOND
     1     7     8    1
     2     8     9   ar
     3     9    10   ar
     4    10    11   ar
     5    11     1    1
     6     1     2   ar
     7     2     3   ar
     8     3    18    1
     9    18    19    2
    10    18    20    2
    11    18    21    1
    12    21    22   ar
    13    22    23   ar
    14    23    24   ar
    15    24    26    1
    16    26    27    1
    17    24    25   ar
    18     3     4   ar
    19     4     5   ar
    20     5     6   ar
    21     6    14    1
    22    14    15    1
    23    14    16    2
    24    14    17    2
    25    11    12   ar
    26    12    13   ar
    27    13     8   ar
    28     6     1   ar
    29    25    21   ar
    30    27    28    1
    31    27    29    1
@<TRIPOS>MOLECULE
*****
 29 31 0 0 0
SMALL
GASTEIGER

@<TRIPOS>ATOM
      1 C         141.3265  142.0325  167.1701 C.ar    1  UNL1        0.0184
      2 C         140.9208  142.6353  165.8579 C.ar    1  UNL1        0.0200
      3 C         141.9485  143.2916  164.9843 C.ar    1  UNL1        0.1109
      4 C         143.3819  143.3451  165.4230 C.ar    1  UNL1        0.0201
      5 C         143.7876  142.7423  166.7353 C.ar    1  UNL1        0.0197
      6 C         142.7599  142.0860  167.6088 C.ar    1  UNL1        0.1058
      7 C         137.2157  139.4072  170.6642 C.3     1  UNL1        0.0310
      8 C         138.2434  140.0635  169.7907 C.ar    1  UNL1       -0.0218
      9 C         138.9782  141.2767  170.2788 C.ar    1  UNL1       -0.0043
     10 C         140.0059  141.9330  169.4053 C.ar    1  UNL1       -0.0003
     11 C         140.2988  141.3762  168.0436 C.ar    1  UNL1        0.0013
     12 C         139.5640  140.1630  167.5555 C.ar    1  UNL1       -0.0003
     13 C         138.5363  139.5067  168.4291 C.ar    1  UNL1       -0.0043
     14 S         143.1656  141.4832  168.9211 S.O2    1  UNL1        0.0104
     15 C         143.5713  140.8805  170.2334 C.3     1  UNL1        0.1816
     16 O         143.2473  142.8537  169.5253 O.2     1  UNL1       -0.1686
     17 O         143.0839  140.1127  168.3169 O.2     1  UNL1       -0.1686
     18 S         141.5428  143.8944  163.6720 S.O2    1  UNL1        0.0330
     19 O         140.4498  144.6570  164.3602 O.2     1  UNL1       -0.1638
     20 O         142.6358  143.1317  162.9838 O.2     1  UNL1       -0.1638
     21 C         141.1371  144.4971  162.3598 C.ar    1  UNL1        0.1394
     22 C         140.0456  145.5049  162.1522 C.ar    1  UNL1        0.0256
     23 C         139.9856  145.8285  160.6888 C.ar    1  UNL1        0.0054
     24 C         141.0401  145.0208  159.9919 C.ar    1  UNL1        0.0242
     25 S         141.7518  144.1980  161.0246 S.2     1  UNL1       -0.0714
     26 C         141.3317  145.0337  158.5205 C.3     1  UNL1        0.0988
     27 N         142.5379  145.7587  158.0013 N.3     1  UNL1       -0.3170
     28 H         142.4282  146.7599  158.1624 H       1  UNL1        0.1192
     29 H         142.6352  145.5838  157.0011 H       1  UNL1        0.1192
@<TRIPOS>BOND
     1     7     8    1
     2     8     9   ar
     3     9    10   ar
     4    10    11   ar
     5    11     1    1
     6     1     2   ar
     7     2     3   ar
     8     3    18    1
     9    18    19    2
    10    18    20    2
    11    18    21    1
    12    21    22   ar
    13    22    23   ar
    14    23    24   ar
    15    24    26    1
    16    26    27    1
    17    24    25   ar
    18     3     4   ar
    19     4     5   ar
    20     5     6   ar
    21     6    14    1
    22    14    15    1
    23    14    16    2
    24    14    17    2
    25    11    12   ar
    26    12    13   ar
    27    13     8   ar
    28     6     1   ar
    29    25    21   ar
    30    27    28    1
    31    27    29    1
@<TRIPOS>MOLECULE
*****
 29 31 0 0 0
SMALL
GASTEIGER

@<TRIPOS>ATOM
      1 C         140.5516  140.0155  164.6935 C.ar    1  UNL1        0.0184
      2 C         141.2362  140.7694  163.5922 C.ar    1  UNL1        0.0200
      3 C         140.6797  140.7330  162.1997 C.ar    1  UNL1        0.1109
      4 C         139.4385  139.9428  161.9085 C.ar    1  UNL1        0.0201
      5 C         138.7538  139.1889  163.0098 C.ar    1  UNL1        0.0197
      6 C         139.3104  139.2252  164.4022 C.ar    1  UNL1        0.1058
      7 C         142.7777  140.1609  170.2633 C.3     1  UNL1        0.0310
      8 C         142.2211  140.1246  168.8708 C.ar    1  UNL1       -0.0218
      9 C         142.7926  139.1758  167.8593 C.ar    1  UNL1       -0.0043
     10 C         142.2360  139.1394  166.4669 C.ar    1  UNL1       -0.0003
     11 C         141.1081  140.0519  166.0859 C.ar    1  UNL1        0.0013
     12 C         140.5367  141.0006  167.0974 C.ar    1  UNL1       -0.0003
     13 C         141.0932  141.0370  168.4899 C.ar    1  UNL1       -0.0043
     14 S         138.6256  138.4713  165.5035 S.O2    1  UNL1        0.0104
     15 C         137.9409  137.7173  166.6047 C.3     1  UNL1        0.1816
     16 O         139.4672  137.2668  165.2021 O.2     1  UNL1       -0.1686
     17 O         137.7841  139.6758  165.8050 O.2     1  UNL1       -0.1686
     18 S         141.3645  141.4870  161.0985 S.O2    1  UNL1        0.0330
     19 O         140.2589  141.1141  160.1557 O.2     1  UNL1       -0.1638
     20 O         142.4700  141.8599  162.0412 O.2     1  UNL1       -0.1638
     21 C         142.0492  142.2409  159.9973 C.ar    1  UNL1        0.1394
     22 C         143.4520  142.0172  159.5154 C.ar    1  UNL1        0.0256
     23 C         143.7212  142.9890  158.4049 C.ar    1  UNL1        0.0054
     24 C         142.4847  143.8133  158.2004 C.ar    1  UNL1        0.0242
     25 S         141.4514  143.3509  159.1846 S.2     1  UNL1       -0.0714
     26 C         142.3119  144.9077  157.1893 C.3     1  UNL1        0.0988
     27 N         142.5115  146.3389  157.5917 N.3     1  UNL1       -0.3170
     28 H         141.7894  146.6081  158.2598 H       1  UNL1        0.1192
     29 H         142.4510  146.9356  156.7667 H       1  UNL1        0.1192
@<TRIPOS>BOND
     1     7     8    1
     2     8     9   ar
     3     9    10   ar
     4    10    11   ar
     5    11     1    1
     6     1     2   ar
     7     2     3   ar
     8     3    18    1
     9    18    19    2
    10    18    20    2
    11    18    21    1
    12    21    22   ar
    13    22    23   ar
    14    23    24   ar
    15    24    26    1
    16    26    27    1
    17    24    25   ar
    18     3     4   ar
    19     4     5   ar
    20     5     6   ar
    21     6    14    1
    22    14    15    1
    23    14    16    2
    24    14    17    2
    25    11    12   ar
    26    12    13   ar
    27    13     8   ar
    28     6     1   ar
    29    25    21   ar
    30    27    28    1
    31    27    29    1
