@<TRIPOS>MOLECULE
*****
 42 47 0 0 0
SMALL
GASTEIGER

@<TRIPOS>ATOM
      1 C         138.0103  142.8848  162.8296 C.3     1  UNL1        0.1200
      2 C         138.1986  142.5272  161.3851 C.3     1  UNL1        0.0311
      3 C         138.1419  141.0915  160.9543 C.3     1  UNL1        0.0194
      4 C         137.8968  140.0134  161.9681 C.3     1  UNL1        0.0700
      5 C         137.7085  140.3710  163.4126 C.3     1  UNL1        0.0194
      6 C         137.7652  141.8068  163.8433 C.3     1  UNL1        0.0311
      7 C         137.9195  140.7860  162.2518 C.3     1  UNL1        0.1563
      8 O         137.9708  142.0842  162.6413 O.3     1  UNL1       -0.3547
      9 C         138.0670  144.3205  163.2603 C.3     1  UNL1        0.1661
     10 O         137.1882  145.3383  162.5957 O.3     1  UNL1       -0.3793
     11 H         137.3480  146.2101  162.9896 H       1  UNL1        0.2106
     12 C         139.0026  144.7385  164.3558 C.3     1  UNL1        0.1654
     13 O         138.4686  145.4302  165.5750 O.3     1  UNL1       -0.3774
     14 H         137.5068  145.5285  165.4957 H       1  UNL1        0.2109
     15 C         140.9980  141.8494  167.1704 C.ar    1  UNL1        0.2250
     16 C         142.4675  141.5757  167.0467 C.ar    1  UNL1        0.0593
     17 C         143.2720  142.2650  165.9848 C.ar    1  UNL1        0.0254
     18 C         142.6070  143.2280  165.0466 C.ar    1  UNL1        0.0991
     19 N         143.4115  143.9173  163.9847 N.ar    1  UNL1       -0.2400
     20 C         142.7464  144.8802  163.0465 C.ar    1  UNL1        0.1282
     21 C         141.2767  145.1540  163.1702 C.ar    1  UNL1        0.1590
     22 F         140.6116  146.1170  162.2320 F       1  UNL1       -0.2027
     23 C         140.4722  144.4647  164.2321 C.ar    1  UNL1        0.0549
     24 C         141.1374  143.5017  165.1703 C.ar    1  UNL1        0.1025
     25 N         140.3329  142.8124  166.2322 N.ar    1  UNL1       -0.2103
     26 C         139.3913  139.9394  167.8917 C.3     1  UNL1        0.2542
     27 O         140.1935  141.1602  168.2324 O.3     1  UNL1       -0.4561
     28 N         137.8401  138.5777  161.5373 N.3     1  UNL1       -0.2926
     29 H         137.3009  138.5511  160.6719 H       1  UNL1        0.1236
     30 C         139.1095  137.8211  161.2802 C.3     1  UNL1        0.1152
     31 C         140.3190  138.0746  162.1302 C.ar    1  UNL1        0.0765
     32 C         140.5124  137.3104  163.4065 C.ar    1  UNL1        0.0193
     33 C         141.7219  137.5639  164.2565 C.ar    1  UNL1        0.0411
     34 C         142.7382  138.5816  163.8305 C.ar    1  UNL1        0.1708
     35 C         142.5449  139.3458  162.5543 C.ar    1  UNL1        0.1682
     36 N         141.3353  139.0923  161.7042 N.ar    1  UNL1       -0.2304
     37 N         143.5611  140.3635  162.1283 N.am    1  UNL1       -0.2639
     38 C         144.7707  140.6170  162.9783 C.2     1  UNL1        0.2718
     39 O         145.7869  141.6347  162.5523 O.2     1  UNL1       -0.2707
     40 C         144.9640  139.8528  164.2546 C.3     1  UNL1        0.2898
     41 O         143.9478  138.8351  164.6806 O.3     1  UNL1       -0.4628
     42 H         143.4342  140.8651  161.2907 H       1  UNL1        0.1565
@<TRIPOS>BOND
     1    26    27    1
     2    27    15    1
     3    15    16   ar
     4    16    17   ar
     5    17    18   ar
     6    18    19   ar
     7    19    20   ar
     8    20    21   ar
     9    21    22    1
    10    21    23   ar
    11    23    12    1
    12    12    13    1
    13    12     9    1
    14     9    10    1
    15     9     1    1
    16     1     2    1
    17     2     3    1
    18     3     4    1
    19     4    28    1
    20    28    30    1
    21    30    31    1
    22    31    32   ar
    23    32    33   ar
    24    33    34   ar
    25    34    35   ar
    26    35    36   ar
    27    35    37    1
    28    37    38   am
    29    38    39    2
    30    38    40    1
    31    40    41    1
    32     4     5    1
    33     5     6    1
    34     4     7    1
    35     7     8    1
    36    23    24   ar
    37    24    25   ar
    38    25    15   ar
    39    24    18   ar
    40     6     1    1
    41     8     1    1
    42    36    31   ar
    43    41    34    1
    44    13    14    1
    45    10    11    1
    46    28    29    1
    47    37    42    1
@<TRIPOS>MOLECULE
*****
 42 47 0 0 0
SMALL
GASTEIGER

@<TRIPOS>ATOM
      1 C         143.9237  142.6473  163.1054 C.3     1  UNL1        0.1200
      2 C         143.3276  143.3066  164.3137 C.3     1  UNL1        0.0311
      3 C         142.3341  144.4182  164.1481 C.3     1  UNL1        0.0194
      4 C         141.9369  144.8706  162.7742 C.3     1  UNL1        0.0700
      5 C         142.5331  144.2113  161.5659 C.3     1  UNL1        0.0194
      6 C         143.5265  143.0997  161.7315 C.3     1  UNL1        0.0311
      7 C         142.4850  144.2575  162.8148 C.3     1  UNL1        0.1563
      8 O         143.3833  143.2524  162.9645 O.3     1  UNL1       -0.3547
      9 C         144.9172  141.5358  163.2710 C.3     1  UNL1        0.1661
     10 O         146.3834  141.8106  163.1139 O.3     1  UNL1       -0.3793
     11 H         146.8827  140.9905  163.2519 H       1  UNL1        0.2106
     12 C         144.4444  140.1492  163.5938 C.3     1  UNL1        0.1654
     13 O         145.2462  139.2791  164.5157 O.3     1  UNL1       -0.3774
     14 H         146.0341  139.7613  164.8117 H       1  UNL1        0.2109
     15 C         140.8230  139.5353  166.1935 C.ar    1  UNL1        0.2250
     16 C         139.5485  139.0190  165.5944 C.ar    1  UNL1        0.0593
     17 C         139.4811  138.7073  164.1286 C.ar    1  UNL1        0.0254
     18 C         140.6882  138.9120  163.2621 C.ar    1  UNL1        0.0991
     19 N         140.6208  138.6003  161.7963 N.ar    1  UNL1       -0.2400
     20 C         141.8278  138.8050  160.9298 C.ar    1  UNL1        0.1282
     21 C         143.1025  139.3213  161.5289 C.ar    1  UNL1        0.1590
     22 F         144.3095  139.5259  160.6623 F       1  UNL1       -0.2027
     23 C         143.1699  139.6329  162.9946 C.ar    1  UNL1        0.0549
     24 C         141.9627  139.4283  163.8612 C.ar    1  UNL1        0.1025
     25 N         142.0301  139.7399  165.3269 N.ar    1  UNL1       -0.2103
     26 C         139.6321  140.1334  168.4237 C.3     1  UNL1        0.2542
     27 O         140.8904  139.8469  167.6592 O.3     1  UNL1       -0.4561
     28 N         140.9435  145.9821  162.6086 N.3     1  UNL1       -0.2926
     29 H         141.0968  146.3784  161.6812 H       1  UNL1        0.1236
     30 C         139.4748  145.6984  162.7208 C.3     1  UNL1        0.1152
     31 C         138.9573  144.3131  162.4700 C.ar    1  UNL1        0.0765
     32 C         138.4117  143.4992  163.6058 C.ar    1  UNL1        0.0193
     33 C         137.8941  142.1139  163.3550 C.ar    1  UNL1        0.0411
     34 C         137.9221  141.5424  161.9684 C.ar    1  UNL1        0.1708
     35 C         138.4676  142.3562  160.8326 C.ar    1  UNL1        0.1682
     36 N         138.9852  143.7416  161.0834 N.ar    1  UNL1       -0.2304
     37 N         138.4956  141.7847  159.4460 N.am    1  UNL1       -0.2639
     38 C         137.9781  140.3994  159.1952 C.2     1  UNL1        0.2718
     39 O         138.0060  139.8279  157.8086 O.2     1  UNL1       -0.2707
     40 C         137.4325  139.5855  160.3310 C.3     1  UNL1        0.2898
     41 O         137.4045  140.1569  161.7176 O.3     1  UNL1       -0.4628
     42 H         138.8537  142.3189  158.7006 H       1  UNL1        0.1565
@<TRIPOS>BOND
     1    26    27    1
     2    27    15    1
     3    15    16   ar
     4    16    17   ar
     5    17    18   ar
     6    18    19   ar
     7    19    20   ar
     8    20    21   ar
     9    21    22    1
    10    21    23   ar
    11    23    12    1
    12    12    13    1
    13    12     9    1
    14     9    10    1
    15     9     1    1
    16     1     2    1
    17     2     3    1
    18     3     4    1
    19     4    28    1
    20    28    30    1
    21    30    31    1
    22    31    32   ar
    23    32    33   ar
    24    33    34   ar
    25    34    35   ar
    26    35    36   ar
    27    35    37    1
    28    37    38   am
    29    38    39    2
    30    38    40    1
    31    40    41    1
    32     4     5    1
    33     5     6    1
    34     4     7    1
    35     7     8    1
    36    23    24   ar
    37    24    25   ar
    38    25    15   ar
    39    24    18   ar
    40     6     1    1
    41     8     1    1
    42    36    31   ar
    43    41    34    1
    44    13    14    1
    45    10    11    1
    46    28    29    1
    47    37    42    1
@<TRIPOS>MOLECULE
*****
 42 47 0 0 0
SMALL
GASTEIGER

@<TRIPOS>ATOM
      1 C         143.3235  139.0315  161.8311 C.3     1  UNL1        0.1200
      2 C         143.7707  140.2895  161.1475 C.3     1  UNL1        0.0311
      3 C         144.6323  141.2752  161.8794 C.3     1  UNL1        0.0194
      4 C         145.0468  141.0030  163.2952 C.3     1  UNL1        0.0700
      5 C         144.5996  139.7450  163.9788 C.3     1  UNL1        0.0194
      6 C         143.7379  138.7592  163.2467 C.3     1  UNL1        0.0311
      7 C         144.5741  140.4332  162.9349 C.3     1  UNL1        0.1563
      8 O         143.7950  139.5418  162.2730 O.3     1  UNL1       -0.3547
      9 C         142.4619  138.0457  161.0991 C.3     1  UNL1        0.1661
     10 O         143.0819  136.8425  160.4527 O.3     1  UNL1       -0.3793
     11 H         142.3907  136.3127  160.0256 H       1  UNL1        0.2106
     12 C         140.9801  138.2631  161.0135 C.3     1  UNL1        0.1654
     13 O         140.2957  138.2478  159.6788 O.3     1  UNL1       -0.3774
     14 H         140.9504  138.0860  158.9816 H       1  UNL1        0.2109
     15 C         138.2847  141.8530  161.3259 C.ar    1  UNL1        0.2250
     16 C         137.4874  142.0858  162.5749 C.ar    1  UNL1        0.0593
     17 C         137.5886  141.1220  163.7198 C.ar    1  UNL1        0.0254
     18 C         138.4871  139.9254  163.6157 C.ar    1  UNL1        0.0991
     19 N         138.5883  138.9616  164.7606 N.ar    1  UNL1       -0.2400
     20 C         139.4867  137.7650  164.6565 C.ar    1  UNL1        0.1282
     21 C         140.2840  137.5321  163.4075 C.ar    1  UNL1        0.1590
     22 F         141.1825  136.3356  163.3034 F       1  UNL1       -0.2027
     23 C         140.1829  138.4959  162.2625 C.ar    1  UNL1        0.0549
     24 C         139.2843  139.6926  162.3667 C.ar    1  UNL1        0.1025
     25 N         139.1831  140.6564  161.2218 N.ar    1  UNL1       -0.2103
     26 C         139.4196  143.2357  159.4418 C.3     1  UNL1        0.2542
     27 O         138.1835  142.8168  160.1809 O.3     1  UNL1       -0.4561
     28 N         145.9084  141.9887  164.0271 N.3     1  UNL1       -0.2926
     29 H         146.4883  142.4503  163.3264 H       1  UNL1        0.1236
     30 C         145.2760  143.0731  164.8482 C.3     1  UNL1        0.1152
     31 C         143.8079  143.3521  164.7191 C.ar    1  UNL1        0.0765
     32 C         142.8393  142.7339  165.6834 C.ar    1  UNL1        0.0193
     33 C         141.3711  143.0129  165.5543 C.ar    1  UNL1        0.0411
     34 C         140.8715  143.9100  164.4609 C.ar    1  UNL1        0.1708
     35 C         141.8400  144.5282  163.4966 C.ar    1  UNL1        0.1682
     36 N         143.3082  144.2492  163.6257 N.ar    1  UNL1       -0.2304
     37 N         141.3403  145.4253  162.4033 N.am    1  UNL1       -0.2639
     38 C         139.8722  145.7043  162.2741 C.2     1  UNL1        0.2718
     39 O         139.3726  146.6015  161.1808 O.2     1  UNL1       -0.2707
     40 C         138.9036  145.0861  163.2384 C.3     1  UNL1        0.2898
     41 O         139.4033  144.1890  164.3318 O.3     1  UNL1       -0.4628
     42 H         141.9760  145.8311  161.7704 H       1  UNL1        0.1565
@<TRIPOS>BOND
     1    26    27    1
     2    27    15    1
     3    15    16   ar
     4    16    17   ar
     5    17    18   ar
     6    18    19   ar
     7    19    20   ar
     8    20    21   ar
     9    21    22    1
    10    21    23   ar
    11    23    12    1
    12    12    13    1
    13    12     9    1
    14     9    10    1
    15     9     1    1
    16     1     2    1
    17     2     3    1
    18     3     4    1
    19     4    28    1
    20    28    30    1
    21    30    31    1
    22    31    32   ar
    23    32    33   ar
    24    33    34   ar
    25    34    35   ar
    26    35    36   ar
    27    35    37    1
    28    37    38   am
    29    38    39    2
    30    38    40    1
    31    40    41    1
    32     4     5    1
    33     5     6    1
    34     4     7    1
    35     7     8    1
    36    23    24   ar
    37    24    25   ar
    38    25    15   ar
    39    24    18   ar
    40     6     1    1
    41     8     1    1
    42    36    31   ar
    43    41    34    1
    44    13    14    1
    45    10    11    1
    46    28    29    1
    47    37    42    1
@<TRIPOS>MOLECULE
*****
 42 47 0 0 0
SMALL
GASTEIGER

@<TRIPOS>ATOM
      1 C         141.1204  144.6998  162.9229 C.3     1  UNL1        0.1200
      2 C         142.2309  144.7650  163.9292 C.3     1  UNL1        0.0311
      3 C         143.5930  144.2444  163.5778 C.3     1  UNL1        0.0194
      4 C         143.8447  143.6584  162.2200 C.3     1  UNL1        0.0700
      5 C         142.7342  143.5932  161.2137 C.3     1  UNL1        0.0194
      6 C         141.3720  144.1140  161.5652 C.3     1  UNL1        0.0311
      7 C         143.0817  143.9311  162.3667 C.3     1  UNL1        0.1563
      8 O         141.8500  144.4019  162.6844 O.3     1  UNL1       -0.3547
      9 C         139.7583  145.2205  163.2743 C.3     1  UNL1        0.1661
     10 O         139.1568  146.3428  162.4814 O.3     1  UNL1       -0.3793
     11 H         138.2799  146.5562  162.8370 H       1  UNL1        0.2106
     12 C         138.9976  144.6189  164.4187 C.3     1  UNL1        0.1654
     13 O         138.5316  145.4880  165.5489 O.3     1  UNL1       -0.3774
     14 H         138.8026  146.4048  165.3847 H       1  UNL1        0.2109
     15 C         140.5164  142.0522  167.7884 C.ar    1  UNL1        0.2250
     16 C         140.2217  140.5815  167.8025 C.ar    1  UNL1        0.0593
     17 C         139.4208  139.9664  166.6934 C.ar    1  UNL1        0.0254
     18 C         138.9146  140.8219  165.5702 C.ar    1  UNL1        0.0991
     19 N         138.1137  140.2068  164.4610 N.ar    1  UNL1       -0.2400
     20 C         137.6075  141.0623  163.3378 C.ar    1  UNL1        0.1282
     21 C         137.9021  142.5331  163.3236 C.ar    1  UNL1        0.1590
     22 F         137.3958  143.3886  162.2004 F       1  UNL1       -0.2027
     23 C         138.7030  143.1482  164.4328 C.ar    1  UNL1        0.0549
     24 C         139.2092  142.2926  165.5561 C.ar    1  UNL1        0.1025
     25 N         140.0101  142.9077  166.6652 N.ar    1  UNL1       -0.2103
     26 C         140.6835  143.6743  169.8110 C.3     1  UNL1        0.2542
     27 O         141.3172  142.6673  168.8976 O.3     1  UNL1       -0.4561
     28 N         145.2068  143.1378  161.8686 N.3     1  UNL1       -0.2926
     29 H         145.8496  143.4937  162.5760 H       1  UNL1        0.1236
     30 C         145.4431  141.6596  161.7734 C.3     1  UNL1        0.1152
     31 C         144.6343  140.7152  162.6123 C.ar    1  UNL1        0.0765
     32 C         145.1550  140.2607  163.9437 C.ar    1  UNL1        0.0193
     33 C         144.3462  139.3163  164.7827 C.ar    1  UNL1        0.0411
     34 C         143.0167  138.8263  164.2904 C.ar    1  UNL1        0.1708
     35 C         142.4960  139.2807  162.9591 C.ar    1  UNL1        0.1682
     36 N         143.3048  140.2252  162.1201 N.ar    1  UNL1       -0.2304
     37 N         141.1665  138.7907  162.4668 N.am    1  UNL1       -0.2639
     38 C         140.3578  137.8463  163.3058 C.2     1  UNL1        0.2718
     39 O         139.0283  137.3563  162.8135 O.2     1  UNL1       -0.2707
     40 C         140.8785  137.3918  164.6372 C.3     1  UNL1        0.2898
     41 O         142.2080  137.8818  165.1295 O.3     1  UNL1       -0.4628
     42 H         140.8248  139.0889  161.5930 H       1  UNL1        0.1565
@<TRIPOS>BOND
     1    26    27    1
     2    27    15    1
     3    15    16   ar
     4    16    17   ar
     5    17    18   ar
     6    18    19   ar
     7    19    20   ar
     8    20    21   ar
     9    21    22    1
    10    21    23   ar
    11    23    12    1
    12    12    13    1
    13    12     9    1
    14     9    10    1
    15     9     1    1
    16     1     2    1
    17     2     3    1
    18     3     4    1
    19     4    28    1
    20    28    30    1
    21    30    31    1
    22    31    32   ar
    23    32    33   ar
    24    33    34   ar
    25    34    35   ar
    26    35    36   ar
    27    35    37    1
    28    37    38   am
    29    38    39    2
    30    38    40    1
    31    40    41    1
    32     4     5    1
    33     5     6    1
    34     4     7    1
    35     7     8    1
    36    23    24   ar
    37    24    25   ar
    38    25    15   ar
    39    24    18   ar
    40     6     1    1
    41     8     1    1
    42    36    31   ar
    43    41    34    1
    44    13    14    1
    45    10    11    1
    46    28    29    1
    47    37    42    1
@<TRIPOS>MOLECULE
*****
 42 47 0 0 0
SMALL
GASTEIGER

@<TRIPOS>ATOM
      1 C         141.9079  138.4092  164.1016 C.3     1  UNL1        0.1200
      2 C         142.8195  138.9457  165.1651 C.3     1  UNL1        0.0311
      3 C         144.0345  139.7375  164.7821 C.3     1  UNL1        0.0194
      4 C         144.3379  139.9929  163.3355 C.3     1  UNL1        0.0700
      5 C         143.4264  139.4564  162.2719 C.3     1  UNL1        0.0194
      6 C         142.2113  138.6645  162.6550 C.3     1  UNL1        0.0311
      7 C         143.6604  139.5536  163.4966 C.3     1  UNL1        0.1563
      8 O         142.5618  138.8376  163.8429 O.3     1  UNL1       -0.3547
      9 C         140.6929  137.6174  164.4846 C.3     1  UNL1        0.1661
     10 O         140.7526  136.1188  164.5131 O.3     1  UNL1       -0.3793
     11 H         139.8890  135.7658  164.7788 H       1  UNL1        0.2106
     12 C         139.4181  138.3241  164.8391 C.3     1  UNL1        0.1654
     13 O         138.6599  137.9298  166.0718 O.3     1  UNL1       -0.3774
     14 H         139.1269  137.2085  166.5219 H       1  UNL1        0.2109
     15 C         139.8213  142.6139  166.1370 C.ar    1  UNL1        0.2250
     16 C         139.3049  143.7149  165.2589 C.ar    1  UNL1        0.0593
     17 C         138.6540  143.3859  163.9481 C.ar    1  UNL1        0.0254
     18 C         138.5196  141.9559  163.5154 C.ar    1  UNL1        0.0991
     19 N         137.8688  141.6270  162.2046 N.ar    1  UNL1       -0.2400
     20 C         137.7344  140.1970  161.7720 C.ar    1  UNL1        0.1282
     21 C         138.2509  139.0960  162.6502 C.ar    1  UNL1        0.1590
     22 F         138.1165  137.6661  162.2175 F       1  UNL1       -0.2027
     23 C         138.9017  139.4250  163.9610 C.ar    1  UNL1        0.0549
     24 C         139.0361  140.8550  164.3936 C.ar    1  UNL1        0.1025
     25 N         139.6869  141.1840  165.7044 N.ar    1  UNL1       -0.2103
     26 C         140.3854  141.9765  168.5917 C.3     1  UNL1        0.2542
     27 O         140.4721  142.9429  167.4478 O.3     1  UNL1       -0.4561
     28 N         145.5529  140.7847  162.9524 N.3     1  UNL1       -0.2926
     29 H         145.6487  140.7058  161.9400 H       1  UNL1        0.1236
     30 C         145.6305  142.2460  163.2821 C.3     1  UNL1        0.1152
     31 C         144.4189  143.1159  163.1235 C.ar    1  UNL1        0.0765
     32 C         143.8185  143.7913  164.3208 C.ar    1  UNL1        0.0193
     33 C         142.6069  144.6613  164.1622 C.ar    1  UNL1        0.0411
     34 C         141.9956  144.8558  162.8063 C.ar    1  UNL1        0.1708
     35 C         142.5959  144.1805  161.6090 C.ar    1  UNL1        0.1682
     36 N         143.8075  143.3105  161.7676 N.ar    1  UNL1       -0.2304
     37 N         141.9845  144.3750  160.2531 N.am    1  UNL1       -0.2639
     38 C         140.7729  145.2450  160.0945 C.2     1  UNL1        0.2718
     39 O         140.1616  145.4395  158.7386 O.2     1  UNL1       -0.2707
     40 C         140.1726  145.9204  161.2918 C.3     1  UNL1        0.2898
     41 O         140.7839  145.7258  162.6477 O.3     1  UNL1       -0.4628
     42 H         142.3785  143.9317  159.4673 H       1  UNL1        0.1565
@<TRIPOS>BOND
     1    26    27    1
     2    27    15    1
     3    15    16   ar
     4    16    17   ar
     5    17    18   ar
     6    18    19   ar
     7    19    20   ar
     8    20    21   ar
     9    21    22    1
    10    21    23   ar
    11    23    12    1
    12    12    13    1
    13    12     9    1
    14     9    10    1
    15     9     1    1
    16     1     2    1
    17     2     3    1
    18     3     4    1
    19     4    28    1
    20    28    30    1
    21    30    31    1
    22    31    32   ar
    23    32    33   ar
    24    33    34   ar
    25    34    35   ar
    26    35    36   ar
    27    35    37    1
    28    37    38   am
    29    38    39    2
    30    38    40    1
    31    40    41    1
    32     4     5    1
    33     5     6    1
    34     4     7    1
    35     7     8    1
    36    23    24   ar
    37    24    25   ar
    38    25    15   ar
    39    24    18   ar
    40     6     1    1
    41     8     1    1
    42    36    31   ar
    43    41    34    1
    44    13    14    1
    45    10    11    1
    46    28    29    1
    47    37    42    1
@<TRIPOS>MOLECULE
*****
 42 47 0 0 0
SMALL
GASTEIGER

@<TRIPOS>ATOM
      1 C         142.6081  144.0405  160.7717 C.3     1  UNL1        0.1200
      2 C         142.9675  144.4203  162.1776 C.3     1  UNL1        0.0311
      3 C         144.0671  143.6931  162.8932 C.3     1  UNL1        0.0194
      4 C         144.8074  142.5861  162.2028 C.3     1  UNL1        0.0700
      5 C         144.4480  142.2063  160.7969 C.3     1  UNL1        0.0194
      6 C         143.3483  142.9335  160.0814 C.3     1  UNL1        0.0311
      7 C         144.2123  142.9556  161.7701 C.3     1  UNL1        0.1563
      8 O         143.2180  143.6131  161.1230 O.3     1  UNL1       -0.3547
      9 C         141.5085  144.7676  160.0562 C.3     1  UNL1        0.1661
     10 O         141.8237  145.9810  159.2325 O.3     1  UNL1       -0.3793
     11 H         141.0066  146.3273  158.8411 H       1  UNL1        0.2106
     12 C         140.0935  144.2815  160.1643 C.3     1  UNL1        0.1654
     13 O         139.2958  144.0129  158.9227 O.3     1  UNL1       -0.3774
     14 H         139.8392  144.2027  158.1419 H       1  UNL1        0.2109
     15 C         138.3568  140.2676  161.2236 C.ar    1  UNL1        0.2250
     16 C         137.7395  140.0500  162.5733 C.ar    1  UNL1        0.0593
     17 C         137.7012  141.1705  163.5699 C.ar    1  UNL1        0.0254
     18 C         138.2801  142.5084  163.2168 C.ar    1  UNL1        0.0991
     19 N         138.2418  143.6288  164.2134 N.ar    1  UNL1       -0.2400
     20 C         138.8208  144.9668  163.8603 C.ar    1  UNL1        0.1282
     21 C         139.4380  145.1844  162.5106 C.ar    1  UNL1        0.1590
     22 F         140.0169  146.5223  162.1575 F       1  UNL1       -0.2027
     23 C         139.4763  144.0640  161.5140 C.ar    1  UNL1        0.0549
     24 C         138.8974  142.7259  161.8671 C.ar    1  UNL1        0.1025
     25 N         138.9357  141.6055  160.8705 N.ar    1  UNL1       -0.2103
     26 C         139.6601  138.3675  160.0234 C.3     1  UNL1        0.2542
     27 O         138.3951  139.1472  160.2270 O.3     1  UNL1       -0.4561
     28 N         145.9070  141.8589  162.9184 N.3     1  UNL1       -0.2926
     29 H         146.4915  142.5692  163.3592 H       1  UNL1        0.1236
     30 C         145.5740  140.8525  163.9796 C.3     1  UNL1        0.1152
     31 C         144.3331  140.0184  163.8593 C.ar    1  UNL1        0.0765
     32 C         144.2106  139.0111  162.7545 C.ar    1  UNL1        0.0193
     33 C         142.9697  138.1770  162.6342 C.ar    1  UNL1        0.0411
     34 C         141.8513  138.3503  163.6186 C.ar    1  UNL1        0.1708
     35 C         141.9737  139.3575  164.7233 C.ar    1  UNL1        0.1682
     36 N         143.2146  140.1917  164.8436 N.ar    1  UNL1       -0.2304
     37 N         140.8552  139.5308  165.7077 N.am    1  UNL1       -0.2639
     38 C         139.6143  138.6967  165.5874 C.2     1  UNL1        0.2718
     39 O         138.4958  138.8700  166.5718 O.2     1  UNL1       -0.2707
     40 C         139.4918  137.6894  164.4826 C.3     1  UNL1        0.2898
     41 O         140.6103  137.5162  163.4983 O.3     1  UNL1       -0.4628
     42 H         140.9355  140.1919  166.4327 H       1  UNL1        0.1565
@<TRIPOS>BOND
     1    26    27    1
     2    27    15    1
     3    15    16   ar
     4    16    17   ar
     5    17    18   ar
     6    18    19   ar
     7    19    20   ar
     8    20    21   ar
     9    21    22    1
    10    21    23   ar
    11    23    12    1
    12    12    13    1
    13    12     9    1
    14     9    10    1
    15     9     1    1
    16     1     2    1
    17     2     3    1
    18     3     4    1
    19     4    28    1
    20    28    30    1
    21    30    31    1
    22    31    32   ar
    23    32    33   ar
    24    33    34   ar
    25    34    35   ar
    26    35    36   ar
    27    35    37    1
    28    37    38   am
    29    38    39    2
    30    38    40    1
    31    40    41    1
    32     4     5    1
    33     5     6    1
    34     4     7    1
    35     7     8    1
    36    23    24   ar
    37    24    25   ar
    38    25    15   ar
    39    24    18   ar
    40     6     1    1
    41     8     1    1
    42    36    31   ar
    43    41    34    1
    44    13    14    1
    45    10    11    1
    46    28    29    1
    47    37    42    1
@<TRIPOS>MOLECULE
*****
 42 47 0 0 0
SMALL
GASTEIGER

@<TRIPOS>ATOM
      1 C         140.9530  144.6658  162.1549 C.3     1  UNL1        0.1200
      2 C         141.9173  145.1787  163.1830 C.3     1  UNL1        0.0311
      3 C         143.3269  144.6668  163.2104 C.3     1  UNL1        0.0194
      4 C         143.7723  143.6420  162.2097 C.3     1  UNL1        0.0700
      5 C         142.8080  143.1291  161.1816 C.3     1  UNL1        0.0194
      6 C         141.3983  143.6410  161.1543 C.3     1  UNL1        0.0311
      7 C         142.9899  143.8926  162.1553 C.3     1  UNL1        0.1563
      8 O         141.7152  144.3554  162.1305 O.3     1  UNL1       -0.3547
      9 C         139.5433  145.1777  162.1275 C.3     1  UNL1        0.1661
     10 O         139.2355  146.4928  161.4749 O.3     1  UNL1       -0.3793
     11 H         138.2850  146.6737  161.5447 H       1  UNL1        0.2106
     12 C         138.4414  144.3745  162.7528 C.3     1  UNL1        0.1654
     13 O         137.0098  144.7589  162.5228 O.3     1  UNL1       -0.3774
     14 H         136.9731  145.5424  161.9521 H       1  UNL1        0.2109
     15 C         137.8505  140.2123  161.1477 C.ar    1  UNL1        0.2250
     16 C         138.1802  139.0249  162.0028 C.ar    1  UNL1        0.0593
     17 C         138.7069  139.2249  163.3930 C.ar    1  UNL1        0.0254
     18 C         138.9039  140.6123  163.9281 C.ar    1  UNL1        0.0991
     19 N         139.4305  140.8123  165.3182 N.ar    1  UNL1       -0.2400
     20 C         139.6275  142.1997  165.8533 C.ar    1  UNL1        0.1282
     21 C         139.2978  143.3871  164.9981 C.ar    1  UNL1        0.1590
     22 F         139.4948  144.7745  165.5331 F       1  UNL1       -0.2027
     23 C         138.7711  143.1872  163.6079 C.ar    1  UNL1        0.0549
     24 C         138.5741  141.7997  163.0729 C.ar    1  UNL1        0.1025
     25 N         138.0475  141.5997  161.6827 N.ar    1  UNL1       -0.2103
     26 C         137.9796  140.7053  158.6001 C.3     1  UNL1        0.2542
     27 O         137.3238  140.0123  159.7575 O.3     1  UNL1       -0.4561
     28 N         145.1820  143.1301  162.2371 N.3     1  UNL1       -0.2926
     29 H         145.7205  143.7810  162.8086 H       1  UNL1        0.1236
     30 C         145.4702  141.7540  162.7599 C.3     1  UNL1        0.1152
     31 C         144.6194  141.1723  163.8497 C.ar    1  UNL1        0.0765
     32 C         144.1246  139.7603  163.7422 C.ar    1  UNL1        0.0193
     33 C         143.2738  139.1786  164.8320 C.ar    1  UNL1        0.0411
     34 C         142.9177  140.0089  166.0294 C.ar    1  UNL1        0.1708
     35 C         143.4124  141.4208  166.1370 C.ar    1  UNL1        0.1682
     36 N         144.2632  142.0026  165.0471 N.ar    1  UNL1       -0.2304
     37 N         143.0563  142.2511  167.3344 N.am    1  UNL1       -0.2639
     38 C         142.2054  141.6694  168.4242 C.2     1  UNL1        0.2718
     39 O         141.8493  142.4997  169.6216 O.2     1  UNL1       -0.2707
     40 C         141.7107  140.2574  168.3166 C.3     1  UNL1        0.2898
     41 O         142.0668  139.4271  167.1192 O.3     1  UNL1       -0.4628
     42 H         143.3810  143.1779  167.4050 H       1  UNL1        0.1565
@<TRIPOS>BOND
     1    26    27    1
     2    27    15    1
     3    15    16   ar
     4    16    17   ar
     5    17    18   ar
     6    18    19   ar
     7    19    20   ar
     8    20    21   ar
     9    21    22    1
    10    21    23   ar
    11    23    12    1
    12    12    13    1
    13    12     9    1
    14     9    10    1
    15     9     1    1
    16     1     2    1
    17     2     3    1
    18     3     4    1
    19     4    28    1
    20    28    30    1
    21    30    31    1
    22    31    32   ar
    23    32    33   ar
    24    33    34   ar
    25    34    35   ar
    26    35    36   ar
    27    35    37    1
    28    37    38   am
    29    38    39    2
    30    38    40    1
    31    40    41    1
    32     4     5    1
    33     5     6    1
    34     4     7    1
    35     7     8    1
    36    23    24   ar
    37    24    25   ar
    38    25    15   ar
    39    24    18   ar
    40     6     1    1
    41     8     1    1
    42    36    31   ar
    43    41    34    1
    44    13    14    1
    45    10    11    1
    46    28    29    1
    47    37    42    1
@<TRIPOS>MOLECULE
*****
 42 47 0 0 0
SMALL
GASTEIGER

@<TRIPOS>ATOM
      1 C         142.5746  138.9946  162.3460 C.3     1  UNL1        0.1200
      2 C         142.9100  138.5830  163.7489 C.3     1  UNL1        0.0311
      3 C         141.8379  138.0445  164.6492 C.3     1  UNL1        0.0194
      4 C         140.4302  137.9176  164.1465 C.3     1  UNL1        0.0700
      5 C         140.0948  138.3292  162.7436 C.3     1  UNL1        0.0194
      6 C         141.1671  138.8677  161.8434 C.3     1  UNL1        0.0311
      7 C         140.9838  138.2181  163.6163 C.3     1  UNL1        0.1563
      8 O         141.9533  138.7051  162.8022 O.3     1  UNL1       -0.3547
      9 C         143.6467  139.5330  161.4457 C.3     1  UNL1        0.1661
     10 O         144.5669  138.5905  160.7281 O.3     1  UNL1       -0.3793
     11 H         145.1961  139.0982  160.1923 H       1  UNL1        0.2106
     12 C         143.7988  141.0141  161.2630 C.3     1  UNL1        0.1654
     13 O         144.0548  141.5789  159.8972 O.3     1  UNL1       -0.3774
     14 H         144.0930  140.8568  159.2507 H       1  UNL1        0.2109
     15 C         140.3416  143.8754  161.5960 C.ar    1  UNL1        0.2250
     16 C         140.2376  144.7916  162.7791 C.ar    1  UNL1        0.0593
     17 C         141.2861  144.7541  163.8512 C.ar    1  UNL1        0.0254
     18 C         142.4384  143.8004  163.7402 C.ar    1  UNL1        0.0991
     19 N         143.4869  143.7628  164.8123 N.ar    1  UNL1       -0.2400
     20 C         144.6393  142.8091  164.7013 C.ar    1  UNL1        0.1282
     21 C         144.7433  141.8928  163.5182 C.ar    1  UNL1        0.1590
     22 F         145.8956  140.9391  163.4072 F       1  UNL1       -0.2027
     23 C         143.6948  141.9304  162.4461 C.ar    1  UNL1        0.0549
     24 C         142.5424  142.8842  162.5571 C.ar    1  UNL1        0.1025
     25 N         141.4940  142.9217  161.4850 N.ar    1  UNL1       -0.2103
     26 C         139.5193  143.1919  159.2282 C.3     1  UNL1        0.2542
     27 O         139.2932  143.9129  160.5239 O.3     1  UNL1       -0.4561
     28 N         139.3581  137.3791  165.0468 N.3     1  UNL1       -0.2926
     29 H         139.8258  136.8181  165.7588 H       1  UNL1        0.1236
     30 C         138.4429  138.3219  165.7704 C.3     1  UNL1        0.1152
     31 C         138.9990  139.5495  166.4289 C.ar    1  UNL1        0.0765
     32 C         139.3762  140.7405  165.5986 C.ar    1  UNL1        0.0193
     33 C         139.9322  141.9681  166.2571 C.ar    1  UNL1        0.0411
     34 C         140.1111  142.0049  167.7459 C.ar    1  UNL1        0.1708
     35 C         139.7340  140.8140  168.5763 C.ar    1  UNL1        0.1682
     36 N         139.1779  139.5863  167.9178 N.ar    1  UNL1       -0.2304
     37 N         139.9129  140.8508  170.0651 N.am    1  UNL1       -0.2639
     38 C         140.4689  142.0784  170.7236 C.2     1  UNL1        0.2718
     39 O         140.6478  142.1151  172.2124 O.2     1  UNL1       -0.2707
     40 C         140.8461  143.2694  169.8933 C.3     1  UNL1        0.2898
     41 O         140.6672  143.2326  168.4044 O.3     1  UNL1       -0.4628
     42 H         139.6653  140.0691  170.6101 H       1  UNL1        0.1565
@<TRIPOS>BOND
     1    26    27    1
     2    27    15    1
     3    15    16   ar
     4    16    17   ar
     5    17    18   ar
     6    18    19   ar
     7    19    20   ar
     8    20    21   ar
     9    21    22    1
    10    21    23   ar
    11    23    12    1
    12    12    13    1
    13    12     9    1
    14     9    10    1
    15     9     1    1
    16     1     2    1
    17     2     3    1
    18     3     4    1
    19     4    28    1
    20    28    30    1
    21    30    31    1
    22    31    32   ar
    23    32    33   ar
    24    33    34   ar
    25    34    35   ar
    26    35    36   ar
    27    35    37    1
    28    37    38   am
    29    38    39    2
    30    38    40    1
    31    40    41    1
    32     4     5    1
    33     5     6    1
    34     4     7    1
    35     7     8    1
    36    23    24   ar
    37    24    25   ar
    38    25    15   ar
    39    24    18   ar
    40     6     1    1
    41     8     1    1
    42    36    31   ar
    43    41    34    1
    44    13    14    1
    45    10    11    1
    46    28    29    1
    47    37    42    1
@<TRIPOS>MOLECULE
*****
 42 47 0 0 0
SMALL
GASTEIGER

@<TRIPOS>ATOM
      1 C         139.3983  143.7063  162.5510 C.3     1  UNL1        0.1200
      2 C         139.0964  142.4360  161.8126 C.3     1  UNL1        0.0311
      3 C         138.5174  141.2622  162.5452 C.3     1  UNL1        0.0194
      4 C         138.2402  141.3586  164.0163 C.3     1  UNL1        0.0700
      5 C         138.5421  142.6289  164.7546 C.3     1  UNL1        0.0194
      6 C         139.1211  143.8028  164.0219 C.3     1  UNL1        0.0311
      7 C         138.5579  142.0283  163.6577 C.3     1  UNL1        0.1563
      8 O         139.0815  143.0897  162.9953 O.3     1  UNL1       -0.3547
      9 C         139.9774  144.8802  161.8184 C.3     1  UNL1        0.1661
     10 O         139.1101  146.0573  161.4833 O.3     1  UNL1       -0.3793
     11 H         139.6361  146.7231  161.0133 H       1  UNL1        0.2106
     12 C         141.4237  144.8769  161.4207 C.3     1  UNL1        0.1654
     13 O         141.8473  145.5069  160.1270 O.3     1  UNL1       -0.3774
     14 H         141.0695  145.8666  159.6726 H       1  UNL1        0.2109
     15 C         143.2711  140.9322  160.2913 C.ar    1  UNL1        0.2250
     16 C         144.2939  140.2990  161.1874 C.ar    1  UNL1        0.0593
     17 C         144.7009  140.9808  162.4600 C.ar    1  UNL1        0.0254
     18 C         144.0851  142.2957  162.8365 C.ar    1  UNL1        0.0991
     19 N         144.4921  142.9775  164.1091 N.ar    1  UNL1       -0.2400
     20 C         143.8763  144.2924  164.4856 C.ar    1  UNL1        0.1282
     21 C         142.8535  144.9256  163.5895 C.ar    1  UNL1        0.1590
     22 F         142.2377  146.2405  163.9660 F       1  UNL1       -0.2027
     23 C         142.4465  144.2438  162.3169 C.ar    1  UNL1        0.0549
     24 C         143.0623  142.9288  161.9404 C.ar    1  UNL1        0.1025
     25 N         142.6554  142.2471  160.6678 N.ar    1  UNL1       -0.2103
     26 C         142.8250  138.7525  158.9496 C.3     1  UNL1        0.2542
     27 O         142.8642  140.2504  159.0187 O.3     1  UNL1       -0.4561
     28 N         137.6612  140.1848  164.7489 N.3     1  UNL1       -0.2926
     29 H         137.0256  139.7181  164.1017 H       1  UNL1        0.1236
     30 C         138.5672  139.1264  165.3048 C.3     1  UNL1        0.1152
     31 C         139.6202  139.4920  166.3084 C.ar    1  UNL1        0.0765
     32 C         141.0655  139.2212  166.0116 C.ar    1  UNL1        0.0193
     33 C         142.1185  139.5869  167.0152 C.ar    1  UNL1        0.0411
     34 C         141.7264  140.2234  168.3157 C.ar    1  UNL1        0.1708
     35 C         140.2813  140.4942  168.6125 C.ar    1  UNL1        0.1682
     36 N         139.2281  140.1285  167.6088 N.ar    1  UNL1       -0.2304
     37 N         139.8892  141.1306  169.9130 N.am    1  UNL1       -0.2639
     38 C         140.9422  141.4963  170.9166 C.2     1  UNL1        0.2718
     39 O         140.5501  142.1327  172.2170 O.2     1  UNL1       -0.2707
     40 C         142.3875  141.2255  170.6198 C.3     1  UNL1        0.2898
     41 O         142.7796  140.5890  169.3194 O.3     1  UNL1       -0.4628
     42 H         138.9406  141.3084  170.1078 H       1  UNL1        0.1565
@<TRIPOS>BOND
     1    26    27    1
     2    27    15    1
     3    15    16   ar
     4    16    17   ar
     5    17    18   ar
     6    18    19   ar
     7    19    20   ar
     8    20    21   ar
     9    21    22    1
    10    21    23   ar
    11    23    12    1
    12    12    13    1
    13    12     9    1
    14     9    10    1
    15     9     1    1
    16     1     2    1
    17     2     3    1
    18     3     4    1
    19     4    28    1
    20    28    30    1
    21    30    31    1
    22    31    32   ar
    23    32    33   ar
    24    33    34   ar
    25    34    35   ar
    26    35    36   ar
    27    35    37    1
    28    37    38   am
    29    38    39    2
    30    38    40    1
    31    40    41    1
    32     4     5    1
    33     5     6    1
    34     4     7    1
    35     7     8    1
    36    23    24   ar
    37    24    25   ar
    38    25    15   ar
    39    24    18   ar
    40     6     1    1
    41     8     1    1
    42    36    31   ar
    43    41    34    1
    44    13    14    1
    45    10    11    1
    46    28    29    1
    47    37    42    1
