@<TRIPOS>MOLECULE
*****
 42 46 0 0 0
SMALL
GASTEIGER

@<TRIPOS>ATOM
      1 C         142.5986  139.4528  158.7437 C.ar    1  UNL1        0.0035
      2 C         143.5533  140.5056  158.2637 C.ar    1  UNL1        0.0295
      3 C         144.0271  141.5735  159.2046 C.ar    1  UNL1        0.1416
      4 F         144.9817  142.6263  158.7247 F       1  UNL1       -0.2041
      5 C         143.5464  141.5885  160.6254 C.ar    1  UNL1        0.0486
      6 C         142.5918  140.5357  161.1053 C.ar    1  UNL1        0.0866
      7 C         142.1179  139.4679  160.1645 C.ar    1  UNL1        0.0250
      8 N         142.1111  140.5508  162.5262 N.ar    1  UNL1       -0.1945
      9 N         140.8358  141.2572  162.8790 N.ar    1  UNL1       -0.1610
     10 C         140.3551  141.2722  164.2998 C.ar    1  UNL1        0.1208
     11 C         141.1498  140.5808  165.3678 C.ar    1  UNL1        0.0274
     12 C         140.6690  140.5959  166.7886 C.ar    1  UNL1       -0.0024
     13 C         141.4637  139.9045  167.8566 C.ar    1  UNL1       -0.0205
     14 C         142.7390  139.1980  167.5037 C.ar    1  UNL1        0.0255
     15 C         143.2197  139.1830  166.0829 C.ar    1  UNL1        0.1445
     16 F         144.4950  138.4766  165.7301 F       1  UNL1       -0.2040
     17 C         142.4250  139.8744  165.0149 C.ar    1  UNL1        0.0868
     18 C         142.9057  139.8594  163.5942 C.ar    1  UNL1        0.2825
     19 O         144.1811  139.1529  163.2413 O.2     1  UNL1       -0.2651
     20 C         140.9830  139.9195  169.2774 C.3     1  UNL1        0.0190
     21 C         142.3500  139.5152  169.7441 C.3     1  UNL1        0.0044
     22 C         139.6160  140.3238  168.8107 C.3     1  UNL1        0.0044
     23 C         140.5024  139.9345  170.6983 C.3     1  UNL1        0.0044
     24 C         139.0756  137.6723  155.3647 C.3     1  UNL1        0.1336
     25 N         140.3633  137.4948  156.1134 N.ar    1  UNL1       -0.2911
     26 C         140.8371  138.5626  157.0542 C.ar    1  UNL1        0.0784
     27 C         142.1248  138.3850  157.8029 C.ar    1  UNL1        0.0186
     28 C         142.9385  137.1397  157.6107 C.ar    1  UNL1        0.0210
     29 C         142.4646  136.0718  156.6699 C.ar    1  UNL1        0.1073
     30 C         141.1770  136.2493  155.9212 C.ar    1  UNL1        0.2745
     31 O         140.7031  135.1815  154.9804 O.2     1  UNL1       -0.2656
     32 N         143.2783  134.8265  156.4778 N.am    1  UNL1       -0.2801
     33 C         143.7548  134.0507  157.6698 C.2     1  UNL1        0.2285
     34 O         143.4176  134.5201  159.0539 O.2     1  UNL1       -0.2747
     35 H         143.4997  134.5184  155.5693 H       1  UNL1        0.1550
     36 C         144.5686  132.8052  157.4777 C.3     1  UNL1        0.1120
     37 C         145.5095  131.7715  158.0218 C.3     1  UNL1        0.0476
     38 C         145.0372  131.6820  156.6010 C.3     1  UNL1        0.1701
     39 F         145.0350  130.9818  155.2744 F       1  UNL1       -0.2368
     40 C         141.1633  138.4151  160.6445 C.3     1  UNL1        0.1651
     41 O         141.6598  137.2848  161.4965 O.3     1  UNL1       -0.3772
     42 H         142.2650  136.7312  160.9787 H       1  UNL1        0.2109
@<TRIPOS>BOND
     1    24    25    1
     2    25    26   ar
     3    26    27   ar
     4    27     1    1
     5     1     2   ar
     6     2     3   ar
     7     3     4    1
     8     3     5   ar
     9     5     6   ar
    10     6     8    1
    11     8     9   ar
    12     9    10   ar
    13    10    11   ar
    14    11    12   ar
    15    12    13   ar
    16    13    20    1
    17    20    21    1
    18    20    22    1
    19    20    23    1
    20    13    14   ar
    21    14    15   ar
    22    15    16    1
    23    15    17   ar
    24    17    18   ar
    25    18    19    2
    26     6     7   ar
    27     7    40    1
    28    40    41    1
    29    27    28   ar
    30    28    29   ar
    31    29    32    1
    32    32    33   am
    33    33    34    2
    34    36    33    1
    35    36    37    1
    36    37    38    1
    37    38    39    1
    38    29    30   ar
    39    30    31    2
    40    30    25   ar
    41     7     1   ar
    42    38    36    1
    43    18     8   ar
    44    17    11   ar
    45    41    42    1
    46    32    35    1
@<TRIPOS>MOLECULE
*****
 42 46 0 0 0
SMALL
GASTEIGER

@<TRIPOS>ATOM
      1 C         139.3206  142.9316  158.2595 C.ar    1  UNL1        0.0035
      2 C         139.9762  144.1238  157.6277 C.ar    1  UNL1        0.0295
      3 C         140.6870  145.1300  158.4835 C.ar    1  UNL1        0.1416
      4 F         141.3426  146.3221  157.8517 F       1  UNL1       -0.2041
      5 C         140.7423  144.9442  159.9708 C.ar    1  UNL1        0.0486
      6 C         140.0867  143.7521  160.6026 C.ar    1  UNL1        0.0866
      7 C         139.3759  142.7458  159.7470 C.ar    1  UNL1        0.0250
      8 N         140.1420  143.5662  162.0901 N.ar    1  UNL1       -0.1945
      9 N         138.9751  143.9725  162.9405 N.ar    1  UNL1       -0.1610
     10 C         139.0305  143.7867  164.4279 C.ar    1  UNL1        0.1208
     11 C         140.2526  143.1945  165.0648 C.ar    1  UNL1        0.0274
     12 C         140.3079  143.0087  166.5523 C.ar    1  UNL1       -0.0024
     13 C         141.5301  142.4165  167.1892 C.ar    1  UNL1       -0.0205
     14 C         142.6970  142.0102  166.3386 C.ar    1  UNL1        0.0255
     15 C         142.6416  142.1961  164.8513 C.ar    1  UNL1        0.1445
     16 F         143.8085  141.7897  164.0008 F       1  UNL1       -0.2040
     17 C         141.4195  142.7882  164.2144 C.ar    1  UNL1        0.0868
     18 C         141.3641  142.9741  162.7270 C.ar    1  UNL1        0.2825
     19 O         142.5310  142.5677  161.8764 O.2     1  UNL1       -0.2651
     20 C         141.5854  142.2307  168.6766 C.3     1  UNL1        0.0190
     21 C         140.4178  143.1587  168.8360 C.3     1  UNL1        0.0044
     22 C         142.7531  141.3028  168.5172 C.3     1  UNL1        0.0044
     23 C         141.6407  142.0449  170.1641 C.3     1  UNL1        0.0044
     24 C         139.3523  138.4799  155.5798 C.3     1  UNL1        0.1336
     25 N         138.6256  139.6995  156.0640 N.ar    1  UNL1       -0.2911
     26 C         139.3364  140.7058  156.9196 C.ar    1  UNL1        0.0784
     27 C         138.6098  141.9254  157.4039 C.ar    1  UNL1        0.0186
     28 C         137.1722  142.1388  157.0324 C.ar    1  UNL1        0.0210
     29 C         136.4613  141.1325  156.1768 C.ar    1  UNL1        0.1073
     30 C         137.1880  139.9129  155.6925 C.ar    1  UNL1        0.2745
     31 O         136.4772  138.9066  154.8369 O.2     1  UNL1       -0.2656
     32 N         135.0238  141.3459  155.8053 N.am    1  UNL1       -0.2801
     33 C         133.9480  140.5504  156.4834 C.2     1  UNL1        0.2285
     34 O         134.3097  139.5415  157.5328 O.2     1  UNL1       -0.2747
     35 H         134.7864  142.0080  155.1166 H       1  UNL1        0.1550
     36 C         132.5104  140.7637  156.1120 C.3     1  UNL1        0.1120
     37 C         131.4704  141.4801  155.3026 C.3     1  UNL1        0.0476
     38 C         131.0606  140.4169  156.2781 C.3     1  UNL1        0.1701
     39 F         129.9869  139.6028  156.9371 F       1  UNL1       -0.2368
     40 C         138.7203  141.5537  160.3787 C.3     1  UNL1        0.1651
     41 O         137.5912  141.7444  161.3477 O.3     1  UNL1       -0.3772
     42 H         137.9204  142.1897  162.1441 H       1  UNL1        0.2109
@<TRIPOS>BOND
     1    24    25    1
     2    25    26   ar
     3    26    27   ar
     4    27     1    1
     5     1     2   ar
     6     2     3   ar
     7     3     4    1
     8     3     5   ar
     9     5     6   ar
    10     6     8    1
    11     8     9   ar
    12     9    10   ar
    13    10    11   ar
    14    11    12   ar
    15    12    13   ar
    16    13    20    1
    17    20    21    1
    18    20    22    1
    19    20    23    1
    20    13    14   ar
    21    14    15   ar
    22    15    16    1
    23    15    17   ar
    24    17    18   ar
    25    18    19    2
    26     6     7   ar
    27     7    40    1
    28    40    41    1
    29    27    28   ar
    30    28    29   ar
    31    29    32    1
    32    32    33   am
    33    33    34    2
    34    36    33    1
    35    36    37    1
    36    37    38    1
    37    38    39    1
    38    29    30   ar
    39    30    31    2
    40    30    25   ar
    41     7     1   ar
    42    38    36    1
    43    18     8   ar
    44    17    11   ar
    45    41    42    1
    46    32    35    1
@<TRIPOS>MOLECULE
*****
 42 46 0 0 0
SMALL
GASTEIGER

@<TRIPOS>ATOM
      1 C         142.3839  143.4671  158.2742 C.ar    1  UNL1        0.0035
      2 C         143.6483  143.1087  157.5511 C.ar    1  UNL1        0.0295
      3 C         144.8431  142.6303  158.3217 C.ar    1  UNL1        0.1416
      4 F         146.1076  142.2719  157.5986 F       1  UNL1       -0.2041
      5 C         144.7735  142.5104  159.8152 C.ar    1  UNL1        0.0486
      6 C         143.5091  142.8688  160.5383 C.ar    1  UNL1        0.0866
      7 C         142.3143  143.3471  159.7678 C.ar    1  UNL1        0.0250
      8 N         143.4395  142.7488  162.0319 N.ar    1  UNL1       -0.1945
      9 N         143.7074  143.9468  162.8939 N.ar    1  UNL1       -0.1610
     10 C         143.6378  143.8268  164.3874 C.ar    1  UNL1        0.1208
     11 C         143.3003  142.5088  165.0190 C.ar    1  UNL1        0.0274
     12 C         143.2307  142.3888  166.5126 C.ar    1  UNL1       -0.0024
     13 C         142.8932  141.0708  167.1443 C.ar    1  UNL1       -0.0205
     14 C         142.6252  139.8728  166.2822 C.ar    1  UNL1        0.0255
     15 C         142.6949  139.9928  164.7887 C.ar    1  UNL1        0.1445
     16 F         142.4270  138.7948  163.9268 F       1  UNL1       -0.2040
     17 C         143.0324  141.3108  164.1571 C.ar    1  UNL1        0.0868
     18 C         143.1020  141.4308  162.6636 C.ar    1  UNL1        0.2825
     19 O         142.8341  140.2328  161.8015 O.2     1  UNL1       -0.2651
     20 C         142.8235  140.9508  168.6378 C.3     1  UNL1        0.0190
     21 C         143.1668  142.4049  168.7706 C.3     1  UNL1        0.0044
     22 C         142.4803  139.4967  168.5050 C.3     1  UNL1        0.0044
     23 C         142.7539  140.8309  170.1314 C.3     1  UNL1        0.0044
     24 C         137.9290  142.4599  155.7966 C.3     1  UNL1        0.1336
     25 N         138.9617  143.4418  156.2649 N.ar    1  UNL1       -0.2911
     26 C         140.1565  142.9635  157.0354 C.ar    1  UNL1        0.0784
     27 C         141.1892  143.9454  157.5037 C.ar    1  UNL1        0.0186
     28 C         141.0271  145.4057  157.2016 C.ar    1  UNL1        0.0210
     29 C         139.8323  145.8841  156.4311 C.ar    1  UNL1        0.1073
     30 C         138.7996  144.9022  155.9627 C.ar    1  UNL1        0.2745
     31 O         137.6048  145.3805  155.1923 O.2     1  UNL1       -0.2656
     32 N         139.6702  147.3443  156.1289 N.am    1  UNL1       -0.2801
     33 C         140.0099  147.8704  154.7659 C.2     1  UNL1        0.2285
     34 O         140.5116  146.9361  153.7050 O.2     1  UNL1       -0.2747
     35 H         139.3409  147.9575  156.8252 H       1  UNL1        0.1550
     36 C         139.8479  149.3307  154.4637 C.3     1  UNL1        0.1120
     37 C         140.2790  150.5585  153.7177 C.3     1  UNL1        0.0476
     38 C         139.1361  150.6322  154.6863 C.3     1  UNL1        0.1701
     39 F         138.0653  151.4261  155.3741 F       1  UNL1       -0.2368
     40 C         141.0499  143.7055  160.4909 C.3     1  UNL1        0.1651
     41 O         140.9971  144.9388  161.3432 O.3     1  UNL1       -0.3772
     42 H         141.5934  144.8339  162.1010 H       1  UNL1        0.2109
@<TRIPOS>BOND
     1    24    25    1
     2    25    26   ar
     3    26    27   ar
     4    27     1    1
     5     1     2   ar
     6     2     3   ar
     7     3     4    1
     8     3     5   ar
     9     5     6   ar
    10     6     8    1
    11     8     9   ar
    12     9    10   ar
    13    10    11   ar
    14    11    12   ar
    15    12    13   ar
    16    13    20    1
    17    20    21    1
    18    20    22    1
    19    20    23    1
    20    13    14   ar
    21    14    15   ar
    22    15    16    1
    23    15    17   ar
    24    17    18   ar
    25    18    19    2
    26     6     7   ar
    27     7    40    1
    28    40    41    1
    29    27    28   ar
    30    28    29   ar
    31    29    32    1
    32    32    33   am
    33    33    34    2
    34    36    33    1
    35    36    37    1
    36    37    38    1
    37    38    39    1
    38    29    30   ar
    39    30    31    2
    40    30    25   ar
    41     7     1   ar
    42    38    36    1
    43    18     8   ar
    44    17    11   ar
    45    41    42    1
    46    32    35    1
@<TRIPOS>MOLECULE
*****
 42 46 0 0 0
SMALL
GASTEIGER

@<TRIPOS>ATOM
      1 C         140.3041  139.3310  158.4038 C.ar    1  UNL1        0.0035
      2 C         139.1124  139.8912  157.6855 C.ar    1  UNL1        0.0295
      3 C         137.9858  140.5023  158.4649 C.ar    1  UNL1        0.1416
      4 F         136.7941  141.0624  157.7466 F       1  UNL1       -0.2041
      5 C         138.0510  140.5532  159.9626 C.ar    1  UNL1        0.0486
      6 C         139.2428  139.9930  160.6809 C.ar    1  UNL1        0.0866
      7 C         140.3693  139.3820  159.9016 C.ar    1  UNL1        0.0250
      8 N         139.3079  140.0440  162.1787 N.ar    1  UNL1       -0.1945
      9 N         138.8874  138.8536  162.9886 N.ar    1  UNL1       -0.1610
     10 C         138.9526  138.9046  164.4863 C.ar    1  UNL1        0.1208
     11 C         139.4383  140.1460  165.1741 C.ar    1  UNL1        0.0274
     12 C         139.5034  140.1969  166.6718 C.ar    1  UNL1       -0.0024
     13 C         139.9891  141.4384  167.3596 C.ar    1  UNL1       -0.0205
     14 C         140.4096  142.6288  166.5496 C.ar    1  UNL1        0.0255
     15 C         140.3444  142.5778  165.0519 C.ar    1  UNL1        0.1445
     16 F         140.7649  143.7683  164.2420 F       1  UNL1       -0.2040
     17 C         139.8588  141.3364  164.3641 C.ar    1  UNL1        0.0868
     18 C         139.7936  141.2854  162.8664 C.ar    1  UNL1        0.2825
     19 O         140.2141  142.4759  162.0564 O.2     1  UNL1       -0.2651
     20 C         140.0543  141.4894  168.8573 C.3     1  UNL1        0.0190
     21 C         139.4040  140.1397  168.9315 C.3     1  UNL1        0.0044
     22 C         140.7046  142.8390  168.7830 C.3     1  UNL1        0.0044
     23 C         140.1194  141.5403  170.3550 C.3     1  UNL1        0.0044
     24 C         144.8862  139.7998  155.9987 C.3     1  UNL1        0.1336
     25 N         143.7217  138.9543  156.4219 N.ar    1  UNL1       -0.2911
     26 C         142.5952  139.5654  157.2012 C.ar    1  UNL1        0.0784
     27 C         141.4307  138.7199  157.6244 C.ar    1  UNL1        0.0186
     28 C         141.3927  137.2634  157.2683 C.ar    1  UNL1        0.0210
     29 C         142.5193  136.6522  156.4888 C.ar    1  UNL1        0.1073
     30 C         143.6838  137.4977  156.0657 C.ar    1  UNL1        0.2745
     31 O         144.8103  136.8866  155.2863 O.2     1  UNL1       -0.2656
     32 N         142.4813  135.1956  156.1327 N.am    1  UNL1       -0.2801
     33 C         142.9995  134.1732  157.1002 C.2     1  UNL1        0.2285
     34 O         143.5557  134.6074  158.4239 O.2     1  UNL1       -0.2747
     35 H         142.1163  134.9107  155.2639 H       1  UNL1        0.1550
     36 C         142.9616  132.7166  156.7440 C.3     1  UNL1        0.1120
     37 C         142.5298  131.6158  155.8212 C.3     1  UNL1        0.0476
     38 C         143.3276  131.2945  157.0500 C.3     1  UNL1        0.1701
     39 F         143.9996  130.2880  157.9362 F       1  UNL1       -0.2368
     40 C         141.5610  138.8218  160.6199 C.3     1  UNL1        0.1651
     41 O         141.4230  137.5754  161.4430 O.3     1  UNL1       -0.3772
     42 H         140.8442  137.7511  162.2013 H       1  UNL1        0.2109
@<TRIPOS>BOND
     1    24    25    1
     2    25    26   ar
     3    26    27   ar
     4    27     1    1
     5     1     2   ar
     6     2     3   ar
     7     3     4    1
     8     3     5   ar
     9     5     6   ar
    10     6     8    1
    11     8     9   ar
    12     9    10   ar
    13    10    11   ar
    14    11    12   ar
    15    12    13   ar
    16    13    20    1
    17    20    21    1
    18    20    22    1
    19    20    23    1
    20    13    14   ar
    21    14    15   ar
    22    15    16    1
    23    15    17   ar
    24    17    18   ar
    25    18    19    2
    26     6     7   ar
    27     7    40    1
    28    40    41    1
    29    27    28   ar
    30    28    29   ar
    31    29    32    1
    32    32    33   am
    33    33    34    2
    34    36    33    1
    35    36    37    1
    36    37    38    1
    37    38    39    1
    38    29    30   ar
    39    30    31    2
    40    30    25   ar
    41     7     1   ar
    42    38    36    1
    43    18     8   ar
    44    17    11   ar
    45    41    42    1
    46    32    35    1
@<TRIPOS>MOLECULE
*****
 42 46 0 0 0
SMALL
GASTEIGER

@<TRIPOS>ATOM
      1 C         140.3887  139.6133  158.8470 C.ar    1  UNL1        0.0035
      2 C         139.0253  139.7703  158.2415 C.ar    1  UNL1        0.0295
      3 C         137.8960  140.3123  159.0669 C.ar    1  UNL1        0.1416
      4 F         136.5326  140.4693  158.4614 F       1  UNL1       -0.2041
      5 C         138.1302  140.6973  160.4976 C.ar    1  UNL1        0.0486
      6 C         139.4936  140.5403  161.1030 C.ar    1  UNL1        0.0866
      7 C         140.6228  139.9983  160.2777 C.ar    1  UNL1        0.0250
      8 N         139.7277  140.9254  162.5338 N.ar    1  UNL1       -0.1945
      9 N         140.3980  142.2270  162.8601 N.ar    1  UNL1       -0.1610
     10 C         140.6321  142.6119  164.2908 C.ar    1  UNL1        0.1208
     11 C         140.1959  141.6953  165.3952 C.ar    1  UNL1        0.0274
     12 C         140.4300  142.0803  166.8259 C.ar    1  UNL1       -0.0024
     13 C         139.9939  141.1637  167.9303 C.ar    1  UNL1       -0.0205
     14 C         139.3236  139.8621  167.6038 C.ar    1  UNL1        0.0255
     15 C         139.0895  139.4771  166.1731 C.ar    1  UNL1        0.1445
     16 F         138.4192  138.1755  165.8468 F       1  UNL1       -0.2040
     17 C         139.5256  140.3937  165.0688 C.ar    1  UNL1        0.0868
     18 C         139.2915  140.0087  163.6381 C.ar    1  UNL1        0.2825
     19 O         138.6213  138.7071  163.3117 O.2     1  UNL1       -0.2651
     20 C         140.2280  141.5487  169.3610 C.3     1  UNL1        0.0190
     21 C         141.0523  142.7184  168.9113 C.3     1  UNL1        0.0044
     22 C         139.4037  140.3789  169.8106 C.3     1  UNL1        0.0044
     23 C         140.4621  141.9337  170.7917 C.3     1  UNL1        0.0044
     24 C         144.3871  140.3992  155.6229 C.3     1  UNL1        0.1336
     25 N         143.5171  139.4643  156.4097 N.ar    1  UNL1       -0.2911
     26 C         142.3879  140.0062  157.2349 C.ar    1  UNL1        0.0784
     27 C         141.5179  139.0713  158.0217 C.ar    1  UNL1        0.0186
     28 C         141.7771  137.5944  157.9833 C.ar    1  UNL1        0.0210
     29 C         142.9063  137.0524  157.1580 C.ar    1  UNL1        0.1073
     30 C         143.7763  137.9873  156.3712 C.ar    1  UNL1        0.2745
     31 O         144.9056  137.4453  155.5460 O.2     1  UNL1       -0.2656
     32 N         143.1656  135.5755  157.1195 N.am    1  UNL1       -0.2801
     33 C         142.5811  134.7399  156.0195 C.2     1  UNL1        0.2285
     34 O         141.7375  135.3812  154.9579 O.2     1  UNL1       -0.2747
     35 H         143.7193  135.1546  157.8163 H       1  UNL1        0.1550
     36 C         142.8403  133.2629  155.9810 C.3     1  UNL1        0.1120
     37 C         142.3262  131.8540  155.9585 C.3     1  UNL1        0.0476
     38 C         143.8034  132.1137  155.9367 C.3     1  UNL1        0.1701
     39 F         145.2122  131.6002  155.8987 F       1  UNL1       -0.2368
     40 C         141.9862  139.8414  160.8832 C.3     1  UNL1        0.1651
     41 O         142.8626  141.0429  161.0793 O.3     1  UNL1       -0.3772
     42 H         143.1097  141.4073  160.2150 H       1  UNL1        0.2109
@<TRIPOS>BOND
     1    24    25    1
     2    25    26   ar
     3    26    27   ar
     4    27     1    1
     5     1     2   ar
     6     2     3   ar
     7     3     4    1
     8     3     5   ar
     9     5     6   ar
    10     6     8    1
    11     8     9   ar
    12     9    10   ar
    13    10    11   ar
    14    11    12   ar
    15    12    13   ar
    16    13    20    1
    17    20    21    1
    18    20    22    1
    19    20    23    1
    20    13    14   ar
    21    14    15   ar
    22    15    16    1
    23    15    17   ar
    24    17    18   ar
    25    18    19    2
    26     6     7   ar
    27     7    40    1
    28    40    41    1
    29    27    28   ar
    30    28    29   ar
    31    29    32    1
    32    32    33   am
    33    33    34    2
    34    36    33    1
    35    36    37    1
    36    37    38    1
    37    38    39    1
    38    29    30   ar
    39    30    31    2
    40    30    25   ar
    41     7     1   ar
    42    38    36    1
    43    18     8   ar
    44    17    11   ar
    45    41    42    1
    46    32    35    1
@<TRIPOS>MOLECULE
*****
 42 46 0 0 0
SMALL
GASTEIGER

@<TRIPOS>ATOM
      1 C         140.6185  140.0762  158.9377 C.ar    1  UNL1        0.0035
      2 C         139.6781  141.0695  158.3219 C.ar    1  UNL1        0.0295
      3 C         138.7054  141.8166  159.1856 C.ar    1  UNL1        0.1416
      4 F         137.7650  142.8098  158.5698 F       1  UNL1       -0.2041
      5 C         138.6732  141.5704  160.6648 C.ar    1  UNL1        0.0486
      6 C         139.6136  140.5772  161.2806 C.ar    1  UNL1        0.0866
      7 C         140.5862  139.8301  160.4171 C.ar    1  UNL1        0.0250
      8 N         139.5812  140.3311  162.7600 N.ar    1  UNL1       -0.1945
      9 N         138.7046  139.2513  163.3217 N.ar    1  UNL1       -0.1610
     10 C         138.6723  139.0052  164.8010 C.ar    1  UNL1        0.1208
     11 C         139.5167  139.8390  165.7186 C.ar    1  UNL1        0.0274
     12 C         139.4844  139.5928  167.1979 C.ar    1  UNL1       -0.0024
     13 C         140.3287  140.4266  168.1155 C.ar    1  UNL1       -0.0205
     14 C         141.2054  141.5064  167.5538 C.ar    1  UNL1        0.0255
     15 C         141.2377  141.7524  166.0745 C.ar    1  UNL1        0.1445
     16 F         142.1143  142.8322  165.5128 F       1  UNL1       -0.2040
     17 C         140.3933  140.9187  165.1569 C.ar    1  UNL1        0.0868
     18 C         140.4256  141.1648  163.6776 C.ar    1  UNL1        0.2825
     19 O         141.3023  142.2446  163.1158 O.2     1  UNL1       -0.2651
     20 C         140.2965  140.1805  169.5948 C.3     1  UNL1        0.0190
     21 C         138.8074  140.3610  169.5924 C.3     1  UNL1        0.0044
     22 C         141.7855  140.0000  169.5973 C.3     1  UNL1        0.0044
     23 C         140.2641  139.9344  171.0742 C.3     1  UNL1        0.0044
     24 C         141.8562  135.8623  156.1609 C.3     1  UNL1        0.1336
     25 N         142.2100  137.2222  156.6858 N.ar    1  UNL1       -0.2911
     26 C         141.2374  137.9693  157.5493 C.ar    1  UNL1        0.0784
     27 C         141.5912  139.3292  158.0742 C.ar    1  UNL1        0.0186
     28 C         142.9178  139.9420  157.7355 C.ar    1  UNL1        0.0210
     29 C         143.8905  139.1949  156.8720 C.ar    1  UNL1        0.1073
     30 C         143.5367  137.8350  156.3471 C.ar    1  UNL1        0.2745
     31 O         144.5093  137.0879  155.4836 O.2     1  UNL1       -0.2656
     32 N         145.2171  139.8077  156.5333 N.am    1  UNL1       -0.2801
     33 C         145.3307  140.7601  155.3801 C.2     1  UNL1        0.2285
     34 O         144.1178  141.0996  154.5655 O.2     1  UNL1       -0.2747
     35 H         146.0131  139.5848  157.0680 H       1  UNL1        0.1550
     36 C         146.6573  141.3729  155.0414 C.3     1  UNL1        0.1120
     37 C         147.6091  141.9305  154.0250 C.3     1  UNL1        0.0476
     38 C         148.0032  141.8768  155.4712 C.3     1  UNL1        0.1701
     39 F         149.0077  142.1366  156.5544 F       1  UNL1       -0.2368
     40 C         141.5266  138.8369  161.0328 C.3     1  UNL1        0.1651
     41 O         140.9904  137.5796  161.6507 O.3     1  UNL1       -0.3772
     42 H         140.4581  137.8038  162.4300 H       1  UNL1        0.2109
@<TRIPOS>BOND
     1    24    25    1
     2    25    26   ar
     3    26    27   ar
     4    27     1    1
     5     1     2   ar
     6     2     3   ar
     7     3     4    1
     8     3     5   ar
     9     5     6   ar
    10     6     8    1
    11     8     9   ar
    12     9    10   ar
    13    10    11   ar
    14    11    12   ar
    15    12    13   ar
    16    13    20    1
    17    20    21    1
    18    20    22    1
    19    20    23    1
    20    13    14   ar
    21    14    15   ar
    22    15    16    1
    23    15    17   ar
    24    17    18   ar
    25    18    19    2
    26     6     7   ar
    27     7    40    1
    28    40    41    1
    29    27    28   ar
    30    28    29   ar
    31    29    32    1
    32    32    33   am
    33    33    34    2
    34    36    33    1
    35    36    37    1
    36    37    38    1
    37    38    39    1
    38    29    30   ar
    39    30    31    2
    40    30    25   ar
    41     7     1   ar
    42    38    36    1
    43    18     8   ar
    44    17    11   ar
    45    41    42    1
    46    32    35    1
@<TRIPOS>MOLECULE
*****
 42 46 0 0 0
SMALL
GASTEIGER

@<TRIPOS>ATOM
      1 C         142.7966  142.5528  159.2054 C.ar    1  UNL1        0.0035
      2 C         142.0546  143.7626  158.7197 C.ar    1  UNL1        0.0295
      3 C         141.4422  144.7128  159.7057 C.ar    1  UNL1        0.1416
      4 F         140.7001  145.9225  159.2200 F       1  UNL1       -0.2041
      5 C         141.5718  144.4532  161.1773 C.ar    1  UNL1        0.0486
      6 C         142.3138  143.2434  161.6630 C.ar    1  UNL1        0.0866
      7 C         142.9262  142.2933  160.6771 C.ar    1  UNL1        0.0250
      8 N         142.4433  142.9838  163.1348 N.ar    1  UNL1       -0.1945
      9 N         143.7485  143.2377  163.8291 N.ar    1  UNL1       -0.1610
     10 C         143.8780  142.9782  165.3007 C.ar    1  UNL1        0.1208
     11 C         142.7024  142.4647  166.0781 C.ar    1  UNL1        0.0274
     12 C         142.8320  142.2051  167.5498 C.ar    1  UNL1       -0.0024
     13 C         141.6564  141.6917  168.3272 C.ar    1  UNL1       -0.0205
     14 C         140.3512  141.4378  167.6328 C.ar    1  UNL1        0.0255
     15 C         140.2216  141.6973  166.1611 C.ar    1  UNL1        0.1445
     16 F         138.9165  141.4434  165.4668 F       1  UNL1       -0.2040
     17 C         141.3973  142.2108  165.3838 C.ar    1  UNL1        0.0868
     18 C         141.2677  142.4704  163.9121 C.ar    1  UNL1        0.2825
     19 O         139.9625  142.2165  163.2177 O.2     1  UNL1       -0.2651
     20 C         141.7859  141.4321  169.7988 C.3     1  UNL1        0.0190
     21 C         142.1860  142.8613  170.0157 C.3     1  UNL1        0.0044
     22 C         141.3857  140.0028  169.5819 C.3     1  UNL1        0.0044
     23 C         141.9154  141.1726  171.2705 C.3     1  UNL1        0.0044
     24 C         142.5110  138.2094  156.3676 C.3     1  UNL1        0.1336
     25 N         143.2662  139.4310  156.8006 N.ar    1  UNL1       -0.2911
     26 C         142.6538  140.3811  157.7865 C.ar    1  UNL1        0.0784
     27 C         143.4090  141.6027  158.2195 C.ar    1  UNL1        0.0186
     28 C         144.7767  141.8741  157.6665 C.ar    1  UNL1        0.0210
     29 C         145.3892  140.9239  156.6805 C.ar    1  UNL1        0.1073
     30 C         144.6340  139.7023  156.2476 C.ar    1  UNL1        0.2745
     31 O         145.2464  138.7522  155.2616 O.2     1  UNL1       -0.2656
     32 N         146.7568  141.1953  156.1275 N.am    1  UNL1       -0.2801
     33 C         146.9133  142.0224  154.8861 C.2     1  UNL1        0.2285
     34 O         145.7020  142.5781  154.1975 O.2     1  UNL1       -0.2747
     35 H         147.5518  140.8305  156.5794 H       1  UNL1        0.1550
     36 C         148.2810  142.2938  154.3330 C.3     1  UNL1        0.1120
     37 C         149.1656  142.9767  153.3325 C.3     1  UNL1        0.0476
     38 C         149.7652  142.0812  154.3757 C.3     1  UNL1        0.1701
     39 F         150.9683  141.4413  155.0027 F       1  UNL1       -0.2368
     40 C         143.6682  141.0835  161.1628 C.3     1  UNL1        0.1651
     41 O         145.0155  141.2374  161.8042 O.3     1  UNL1       -0.3772
     42 H         145.6505  141.5648  161.1481 H       1  UNL1        0.2109
@<TRIPOS>BOND
     1    24    25    1
     2    25    26   ar
     3    26    27   ar
     4    27     1    1
     5     1     2   ar
     6     2     3   ar
     7     3     4    1
     8     3     5   ar
     9     5     6   ar
    10     6     8    1
    11     8     9   ar
    12     9    10   ar
    13    10    11   ar
    14    11    12   ar
    15    12    13   ar
    16    13    20    1
    17    20    21    1
    18    20    22    1
    19    20    23    1
    20    13    14   ar
    21    14    15   ar
    22    15    16    1
    23    15    17   ar
    24    17    18   ar
    25    18    19    2
    26     6     7   ar
    27     7    40    1
    28    40    41    1
    29    27    28   ar
    30    28    29   ar
    31    29    32    1
    32    32    33   am
    33    33    34    2
    34    36    33    1
    35    36    37    1
    36    37    38    1
    37    38    39    1
    38    29    30   ar
    39    30    31    2
    40    30    25   ar
    41     7     1   ar
    42    38    36    1
    43    18     8   ar
    44    17    11   ar
    45    41    42    1
    46    32    35    1
@<TRIPOS>MOLECULE
*****
 42 46 0 0 0
SMALL
GASTEIGER

@<TRIPOS>ATOM
      1 C         141.0743  142.8376  158.2734 C.ar    1  UNL1        0.0035
      2 C         142.3723  142.2691  157.7815 C.ar    1  UNL1        0.0295
      3 C         143.4001  141.7882  158.7625 C.ar    1  UNL1        0.1416
      4 F         144.6981  141.2197  158.2706 F       1  UNL1       -0.2041
      5 C         143.1299  141.8758  160.2354 C.ar    1  UNL1        0.0486
      6 C         141.8319  142.4443  160.7273 C.ar    1  UNL1        0.0866
      7 C         140.8041  142.9252  159.7464 C.ar    1  UNL1        0.0250
      8 N         141.5618  142.5318  162.2002 N.ar    1  UNL1       -0.1945
      9 N         141.7555  143.8323  162.9222 N.ar    1  UNL1       -0.1610
     10 C         141.4853  143.9198  164.3951 C.ar    1  UNL1        0.1208
     11 C         141.0215  142.7069  165.1459 C.ar    1  UNL1        0.0274
     12 C         140.7513  142.7945  166.6188 C.ar    1  UNL1       -0.0024
     13 C         140.2875  141.5816  167.3696 C.ar    1  UNL1       -0.0205
     14 C         140.0938  140.2811  166.6475 C.ar    1  UNL1        0.0255
     15 C         140.3640  140.1936  165.1747 C.ar    1  UNL1        0.1445
     16 F         140.1703  138.8932  164.4527 F       1  UNL1       -0.2040
     17 C         140.8278  141.4065  164.4239 C.ar    1  UNL1        0.0868
     18 C         141.0979  141.3190  162.9510 C.ar    1  UNL1        0.2825
     19 O         140.9043  140.0185  162.2289 O.2     1  UNL1       -0.2651
     20 C         140.0173  141.6691  168.8425 C.3     1  UNL1        0.0190
     21 C         139.4762  140.2702  168.8263 C.3     1  UNL1        0.0044
     22 C         140.5585  143.0679  168.8586 C.3     1  UNL1        0.0044
     23 C         139.7472  141.7566  170.3154 C.3     1  UNL1        0.0044
     24 C         136.5376  142.1844  155.8257 C.3     1  UNL1        0.1336
     25 N         137.7781  142.9919  156.0686 N.ar    1  UNL1       -0.2911
     26 C         138.8059  142.5110  157.0495 C.ar    1  UNL1        0.0784
     27 C         140.0464  143.3185  157.2925 C.ar    1  UNL1        0.0186
     28 C         140.2591  144.6070  156.5546 C.ar    1  UNL1        0.0210
     29 C         139.2313  145.0880  155.5736 C.ar    1  UNL1        0.1073
     30 C         137.9907  144.2804  155.3306 C.ar    1  UNL1        0.2745
     31 O         136.9629  144.7613  154.3497 O.2     1  UNL1       -0.2656
     32 N         139.4439  146.3764  154.8357 N.am    1  UNL1       -0.2801
     33 C         139.2248  147.6857  155.5341 C.2     1  UNL1        0.2285
     34 O         138.7930  147.7064  156.9704 O.2     1  UNL1       -0.2747
     35 H         139.7273  146.3628  153.8929 H       1  UNL1        0.1550
     36 C         139.4375  148.9742  154.7961 C.3     1  UNL1        0.1120
     37 C         140.1023  149.7462  153.6952 C.3     1  UNL1        0.0476
     38 C         139.1411  150.4339  154.6189 C.3     1  UNL1        0.1701
     39 F         138.4151  151.6737  155.0499 F       1  UNL1       -0.2368
     40 C         139.5061  143.4937  160.2383 C.3     1  UNL1        0.1651
     41 O         139.4770  144.8472  160.8843 O.3     1  UNL1       -0.3772
     42 H         139.9682  144.8171  161.7202 H       1  UNL1        0.2109
@<TRIPOS>BOND
     1    24    25    1
     2    25    26   ar
     3    26    27   ar
     4    27     1    1
     5     1     2   ar
     6     2     3   ar
     7     3     4    1
     8     3     5   ar
     9     5     6   ar
    10     6     8    1
    11     8     9   ar
    12     9    10   ar
    13    10    11   ar
    14    11    12   ar
    15    12    13   ar
    16    13    20    1
    17    20    21    1
    18    20    22    1
    19    20    23    1
    20    13    14   ar
    21    14    15   ar
    22    15    16    1
    23    15    17   ar
    24    17    18   ar
    25    18    19    2
    26     6     7   ar
    27     7    40    1
    28    40    41    1
    29    27    28   ar
    30    28    29   ar
    31    29    32    1
    32    32    33   am
    33    33    34    2
    34    36    33    1
    35    36    37    1
    36    37    38    1
    37    38    39    1
    38    29    30   ar
    39    30    31    2
    40    30    25   ar
    41     7     1   ar
    42    38    36    1
    43    18     8   ar
    44    17    11   ar
    45    41    42    1
    46    32    35    1
@<TRIPOS>MOLECULE
*****
 42 46 0 0 0
SMALL
GASTEIGER

@<TRIPOS>ATOM
      1 C         141.0258  140.2843  159.2083 C.ar    1  UNL1        0.0035
      2 C         141.6549  139.0620  158.6081 C.ar    1  UNL1        0.0295
      3 C         142.3160  138.0473  159.4931 C.ar    1  UNL1        0.1416
      4 F         142.9451  136.8250  158.8929 F       1  UNL1       -0.2041
      5 C         142.3480  138.2548  160.9783 C.ar    1  UNL1        0.0486
      6 C         141.7190  139.4771  161.5785 C.ar    1  UNL1        0.0866
      7 C         141.0578  140.4918  160.6936 C.ar    1  UNL1        0.0250
      8 N         141.7510  139.6846  163.0638 N.ar    1  UNL1       -0.1945
      9 N         143.0279  140.0932  163.7366 N.ar    1  UNL1       -0.1610
     10 C         143.0599  140.3007  165.2218 C.ar    1  UNL1        0.1208
     11 C         141.8151  140.0997  166.0342 C.ar    1  UNL1        0.0274
     12 C         141.8471  140.3072  167.5195 C.ar    1  UNL1       -0.0024
     13 C         140.6023  140.1062  168.3319 C.ar    1  UNL1       -0.0205
     14 C         139.3254  139.6976  167.6590 C.ar    1  UNL1        0.0255
     15 C         139.2934  139.4901  166.1738 C.ar    1  UNL1        0.1445
     16 F         138.0165  139.0816  165.5010 F       1  UNL1       -0.2040
     17 C         140.5382  139.6911  165.3614 C.ar    1  UNL1        0.0868
     18 C         140.5062  139.4836  163.8762 C.ar    1  UNL1        0.2825
     19 O         139.2293  139.0751  163.2033 O.2     1  UNL1       -0.2651
     20 C         140.6343  140.3137  169.8171 C.3     1  UNL1        0.0190
     21 C         139.1546  140.5594  169.8147 C.3     1  UNL1        0.0044
     22 C         142.1140  140.0681  169.8195 C.3     1  UNL1        0.0044
     23 C         140.6663  140.5212  171.3024 C.3     1  UNL1        0.0044
     24 C         141.3192  144.5406  156.2422 C.3     1  UNL1        0.1336
     25 N         140.5114  143.4272  156.8403 N.ar    1  UNL1       -0.2911
     26 C         141.1725  142.4124  157.7253 C.ar    1  UNL1        0.0784
     27 C         140.3647  141.2990  158.3233 C.ar    1  UNL1        0.0186
     28 C         138.8957  141.2003  158.0364 C.ar    1  UNL1        0.0210
     29 C         138.2345  142.2151  157.1514 C.ar    1  UNL1        0.1073
     30 C         139.0423  143.3285  156.5534 C.ar    1  UNL1        0.2745
     31 O         138.3812  144.3432  155.6684 O.2     1  UNL1       -0.2656
     32 N         136.7655  142.1164  156.8645 N.am    1  UNL1       -0.2801
     33 C         136.2247  140.9318  156.1201 C.2     1  UNL1        0.2285
     34 O         137.1529  139.8459  155.6625 O.2     1  UNL1       -0.2747
     35 H         136.1563  142.8291  157.1649 H       1  UNL1        0.1550
     36 C         134.7557  140.8331  155.8331 C.3     1  UNL1        0.1120
     37 C         133.6052  140.9794  154.8818 C.3     1  UNL1        0.0476
     38 C         133.3618  140.5157  156.2874 C.3     1  UNL1        0.1701
     39 F         132.4166  140.0648  157.3612 F       1  UNL1       -0.2368
     40 C         140.4288  141.7141  161.2938 C.3     1  UNL1        0.1651
     41 O         138.9767  141.7025  161.6700 O.3     1  UNL1       -0.3772
     42 H         138.4359  141.6182  160.8692 H       1  UNL1        0.2109
@<TRIPOS>BOND
     1    24    25    1
     2    25    26   ar
     3    26    27   ar
     4    27     1    1
     5     1     2   ar
     6     2     3   ar
     7     3     4    1
     8     3     5   ar
     9     5     6   ar
    10     6     8    1
    11     8     9   ar
    12     9    10   ar
    13    10    11   ar
    14    11    12   ar
    15    12    13   ar
    16    13    20    1
    17    20    21    1
    18    20    22    1
    19    20    23    1
    20    13    14   ar
    21    14    15   ar
    22    15    16    1
    23    15    17   ar
    24    17    18   ar
    25    18    19    2
    26     6     7   ar
    27     7    40    1
    28    40    41    1
    29    27    28   ar
    30    28    29   ar
    31    29    32    1
    32    32    33   am
    33    33    34    2
    34    36    33    1
    35    36    37    1
    36    37    38    1
    37    38    39    1
    38    29    30   ar
    39    30    31    2
    40    30    25   ar
    41     7     1   ar
    42    38    36    1
    43    18     8   ar
    44    17    11   ar
    45    41    42    1
    46    32    35    1
