@<TRIPOS>MOLECULE
*****
 34 39 0 0 0
SMALL
GASTEIGER

@<TRIPOS>ATOM
      1 O         139.6745  142.2575  165.3396 O.2     1  UNL1       -0.2526
      2 C         139.1627  141.4504  164.1834 C.2     1  UNL1        0.3039
      3 N         138.5416  140.1063  164.4235 N.am    1  UNL1       -0.2901
      4 N         139.2720  141.9875  162.7871 N.am    1  UNL1       -0.2642
      5 C         139.8931  143.3315  162.5471 C.3     1  UNL1        0.0954
      6 C         140.0025  143.8686  161.1508 C.3     1  UNL1        0.0309
      7 C         139.4906  143.0615  159.9946 C.3     1  UNL1        0.0827
      8 C         138.8695  141.7174  160.2347 C.3     1  UNL1        0.0309
      9 C         138.7602  141.1804  161.6309 C.3     1  UNL1        0.0954
     10 H         138.2057  139.5767  163.6646 H       1  UNL1        0.1509
     11 C         139.6000  143.5986  158.5983 C.ar    1  UNL1        0.2362
     12 N         139.5554  145.0452  158.2040 N.ar    1  UNL1       -0.1895
     13 C         139.7009  145.1239  156.7131 C.ar    1  UNL1        0.2210
     14 N         139.8354  143.7260  156.1860 N.ar    1  UNL1       -0.0544
     15 O         139.7731  142.7833  157.3511 O.2     1  UNL1       -0.3370
     16 C         139.7103  146.3801  155.8933 C.ar    1  UNL1        0.1202
     17 C         140.3661  146.3904  154.5443 C.ar    1  UNL1        0.0224
     18 C         140.3755  147.6465  153.7245 C.ar    1  UNL1        0.0031
     19 C         139.7290  148.8923  154.2537 C.ar    1  UNL1        0.0177
     20 C         139.7384  150.1484  153.4340 C.ar    1  UNL1        0.0015
     21 C         139.0920  151.3942  153.9632 C.ar    1  UNL1        0.0001
     22 C         138.4362  151.3839  155.3122 C.ar    1  UNL1        0.0015
     23 C         138.4268  150.1278  156.1319 C.ar    1  UNL1        0.0191
     24 C         139.0732  148.8820  155.6027 C.ar    1  UNL1        0.0814
     25 N         139.0639  147.6259  156.4225 N.ar    1  UNL1       -0.2422
     26 C         138.4322  139.5692  165.8198 C.3     1  UNL1        0.0774
     27 C         137.7379  138.7014  166.8271 C.3     1  UNL1        0.0259
     28 C         138.9371  139.5069  167.2308 C.3     1  UNL1        0.0420
     29 C         139.9211  139.9359  168.2787 C.ar    1  UNL1       -0.0208
     30 C         141.3910  139.9131  167.9813 C.ar    1  UNL1       -0.0042
     31 C         142.3750  140.3421  169.0291 C.ar    1  UNL1       -0.0003
     32 C         141.8888  140.7938  170.3743 C.ar    1  UNL1       -0.0000
     33 C         140.4188  140.8166  170.6717 C.ar    1  UNL1       -0.0003
     34 C         139.4350  140.3876  169.6239 C.ar    1  UNL1       -0.0042
@<TRIPOS>BOND
     1     1     2    2
     2     2     3   am
     3     3    26    1
     4    26    27    1
     5    27    28    1
     6    28    29    1
     7    29    30   ar
     8    30    31   ar
     9    31    32   ar
    10    32    33   ar
    11    33    34   ar
    12     2     4   am
    13     4     5    1
    14     5     6    1
    15     6     7    1
    16     7    11    1
    17    11    12   ar
    18    12    13   ar
    19    13    16    1
    20    16    17   ar
    21    17    18   ar
    22    18    19   ar
    23    19    20   ar
    24    20    21   ar
    25    21    22   ar
    26    22    23   ar
    27    23    24   ar
    28    24    25   ar
    29    13    14   ar
    30    14    15   ar
    31     7     8    1
    32     8     9    1
    33    28    26    1
    34    34    29   ar
    35     9     4    1
    36    15    11   ar
    37    25    16   ar
    38    24    19   ar
    39     3    10    1
@<TRIPOS>MOLECULE
*****
 34 39 0 0 0
SMALL
GASTEIGER

@<TRIPOS>ATOM
      1 O         140.8827  139.9996  164.8058 O.2     1  UNL1       -0.2526
      2 C         140.9874  140.7970  163.5396 C.2     1  UNL1        0.3039
      3 N         140.6446  142.2573  163.5424 N.am    1  UNL1       -0.2901
      4 N         141.4349  140.1341  162.2706 N.am    1  UNL1       -0.2642
      5 C         141.7777  138.6738  162.2678 C.3     1  UNL1        0.0954
      6 C         142.2252  138.0110  160.9988 C.3     1  UNL1        0.0309
      7 C         142.3299  138.8084  159.7327 C.3     1  UNL1        0.0827
      8 C         141.9871  140.2687  159.7354 C.3     1  UNL1        0.0309
      9 C         141.5396  140.9315  161.0044 C.3     1  UNL1        0.0954
     10 H         140.7133  142.7806  162.7113 H       1  UNL1        0.1509
     11 C         142.7774  138.1455  158.4637 C.ar    1  UNL1        0.2362
     12 N         142.5777  136.7028  158.1047 N.ar    1  UNL1       -0.1895
     13 C         143.1801  136.4746  156.7500 C.ar    1  UNL1        0.2210
     14 N         143.7520  137.7762  156.2718 N.ar    1  UNL1       -0.0544
     15 O         143.5031  138.8089  157.3308 O.2     1  UNL1       -0.3370
     16 C         143.2059  135.1732  156.0045 C.ar    1  UNL1        0.1202
     17 C         142.4089  135.0152  154.7436 C.ar    1  UNL1        0.0224
     18 C         142.4347  133.7139  153.9981 C.ar    1  UNL1        0.0031
     19 C         143.2576  132.5705  154.5134 C.ar    1  UNL1        0.0177
     20 C         143.2834  131.2692  153.7679 C.ar    1  UNL1        0.0015
     21 C         144.1063  130.1258  154.2832 C.ar    1  UNL1        0.0001
     22 C         144.9033  130.2838  155.5441 C.ar    1  UNL1        0.0015
     23 C         144.8775  131.5851  156.2896 C.ar    1  UNL1        0.0191
     24 C         144.0546  132.7285  155.7743 C.ar    1  UNL1        0.0814
     25 N         144.0288  134.0299  156.5198 N.ar    1  UNL1       -0.2422
     26 C         140.1971  142.9202  164.8114 C.3     1  UNL1        0.0774
     27 C         139.2762  143.8606  165.5308 C.3     1  UNL1        0.0259
     28 C         140.3428  143.1281  166.2897 C.3     1  UNL1        0.0420
     29 C         141.0427  142.8252  167.5814 C.ar    1  UNL1       -0.0208
     30 C         142.3636  142.1146  167.5699 C.ar    1  UNL1       -0.0042
     31 C         143.0635  141.8116  168.8616 C.ar    1  UNL1       -0.0003
     32 C         142.4425  142.2194  170.1647 C.ar    1  UNL1       -0.0000
     33 C         141.1216  142.9300  170.1761 C.ar    1  UNL1       -0.0003
     34 C         140.4217  143.2329  168.8845 C.ar    1  UNL1       -0.0042
@<TRIPOS>BOND
     1     1     2    2
     2     2     3   am
     3     3    26    1
     4    26    27    1
     5    27    28    1
     6    28    29    1
     7    29    30   ar
     8    30    31   ar
     9    31    32   ar
    10    32    33   ar
    11    33    34   ar
    12     2     4   am
    13     4     5    1
    14     5     6    1
    15     6     7    1
    16     7    11    1
    17    11    12   ar
    18    12    13   ar
    19    13    16    1
    20    16    17   ar
    21    17    18   ar
    22    18    19   ar
    23    19    20   ar
    24    20    21   ar
    25    21    22   ar
    26    22    23   ar
    27    23    24   ar
    28    24    25   ar
    29    13    14   ar
    30    14    15   ar
    31     7     8    1
    32     8     9    1
    33    28    26    1
    34    34    29   ar
    35     9     4    1
    36    15    11   ar
    37    25    16   ar
    38    24    19   ar
    39     3    10    1
@<TRIPOS>MOLECULE
*****
 34 39 0 0 0
SMALL
GASTEIGER

@<TRIPOS>ATOM
      1 O         141.8454  144.7730  155.8552 O.2     1  UNL1       -0.2526
      2 C         141.2482  145.1512  157.1782 C.2     1  UNL1        0.3039
      3 N         140.0882  146.1006  157.2335 N.am    1  UNL1       -0.2901
      4 N         141.8110  144.5800  158.4458 N.am    1  UNL1       -0.2642
      5 C         142.9710  143.6306  158.3905 C.3     1  UNL1        0.0954
      6 C         143.5337  143.0594  159.6582 C.3     1  UNL1        0.0309
      7 C         142.9365  143.4376  160.9812 C.3     1  UNL1        0.0827
      8 C         141.7765  144.3870  161.0365 C.3     1  UNL1        0.0309
      9 C         141.2138  144.9582  159.7688 C.3     1  UNL1        0.0954
     10 H         139.6963  146.3488  158.1018 H       1  UNL1        0.1509
     11 C         143.4993  142.8664  162.2488 C.ar    1  UNL1        0.2362
     12 N         142.7057  142.3786  163.4247 N.ar    1  UNL1       -0.1895
     13 C         143.6704  141.8935  164.4658 C.ar    1  UNL1        0.2210
     14 N         145.0602  142.0814  163.9335 N.ar    1  UNL1       -0.0544
     15 O         144.9544  142.6827  162.5634 O.2     1  UNL1       -0.3370
     16 C         143.3088  141.3209  165.8043 C.ar    1  UNL1        0.1202
     17 C         143.1790  139.8363  165.9746 C.ar    1  UNL1        0.0224
     18 C         142.8174  139.2637  167.3130 C.ar    1  UNL1        0.0031
     19 C         142.5856  140.1757  168.4811 C.ar    1  UNL1        0.0177
     20 C         142.2240  139.6031  169.8195 C.ar    1  UNL1        0.0015
     21 C         141.9922  140.5152  170.9876 C.ar    1  UNL1        0.0001
     22 C         142.1220  141.9998  170.8172 C.ar    1  UNL1        0.0015
     23 C         142.4836  142.5724  169.4789 C.ar    1  UNL1        0.0191
     24 C         142.7154  141.6604  168.3108 C.ar    1  UNL1        0.0814
     25 N         143.0770  142.2329  166.9723 N.ar    1  UNL1       -0.2422
     26 C         139.5254  146.6719  155.9658 C.3     1  UNL1        0.0774
     27 C         138.8718  146.4749  154.6302 C.3     1  UNL1        0.0259
     28 C         139.2043  147.8581  155.1058 C.3     1  UNL1        0.0420
     29 C         139.2109  149.3416  154.8838 C.ar    1  UNL1       -0.0208
     30 C         139.7886  149.9083  153.6209 C.ar    1  UNL1       -0.0042
     31 C         139.7952  151.3918  153.3989 C.ar    1  UNL1       -0.0003
     32 C         139.2241  152.3085  154.4398 C.ar    1  UNL1       -0.0000
     33 C         138.6464  151.7417  155.7027 C.ar    1  UNL1       -0.0003
     34 C         138.6399  150.2583  155.9247 C.ar    1  UNL1       -0.0042
@<TRIPOS>BOND
     1     1     2    2
     2     2     3   am
     3     3    26    1
     4    26    27    1
     5    27    28    1
     6    28    29    1
     7    29    30   ar
     8    30    31   ar
     9    31    32   ar
    10    32    33   ar
    11    33    34   ar
    12     2     4   am
    13     4     5    1
    14     5     6    1
    15     6     7    1
    16     7    11    1
    17    11    12   ar
    18    12    13   ar
    19    13    16    1
    20    16    17   ar
    21    17    18   ar
    22    18    19   ar
    23    19    20   ar
    24    20    21   ar
    25    21    22   ar
    26    22    23   ar
    27    23    24   ar
    28    24    25   ar
    29    13    14   ar
    30    14    15   ar
    31     7     8    1
    32     8     9    1
    33    28    26    1
    34    34    29   ar
    35     9     4    1
    36    15    11   ar
    37    25    16   ar
    38    24    19   ar
    39     3    10    1
@<TRIPOS>MOLECULE
*****
 34 39 0 0 0
SMALL
GASTEIGER

@<TRIPOS>ATOM
      1 O         141.6243  141.4382  165.1887 O.2     1  UNL1       -0.2526
      2 C         141.1954  140.4208  164.1733 C.2     1  UNL1        0.3039
      3 N         140.1086  139.4417  164.5054 N.am    1  UNL1       -0.2901
      4 N         141.8531  140.3826  162.8258 N.am    1  UNL1       -0.2642
      5 C         142.9399  141.3617  162.4936 C.3     1  UNL1        0.0954
      6 C         143.5977  141.3234  161.1461 C.3     1  UNL1        0.0309
      7 C         143.1687  140.3061  160.1307 C.3     1  UNL1        0.0827
      8 C         142.0819  139.3270  160.4629 C.3     1  UNL1        0.0309
      9 C         141.4242  139.3652  161.8104 C.3     1  UNL1        0.0954
     10 H         139.8271  138.7740  163.8390 H       1  UNL1        0.1509
     11 C         143.8265  140.2678  158.7832 C.ar    1  UNL1        0.2362
     12 N         144.6668  141.3548  158.1810 N.ar    1  UNL1       -0.1895
     13 C         145.1191  140.8946  156.8269 C.ar    1  UNL1        0.2210
     14 N         144.5583  139.5233  156.5921 N.ar    1  UNL1       -0.0544
     15 O         143.7595  139.1359  157.8012 O.2     1  UNL1       -0.3370
     16 C         145.9808  141.6697  155.8747 C.ar    1  UNL1        0.1202
     17 C         145.3838  142.7706  155.0491 C.ar    1  UNL1        0.0224
     18 C         146.2455  143.5457  154.0969 C.ar    1  UNL1        0.0031
     19 C         147.7043  143.2199  153.9703 C.ar    1  UNL1        0.0177
     20 C         148.5660  143.9950  153.0182 C.ar    1  UNL1        0.0015
     21 C         150.0247  143.6693  152.8917 C.ar    1  UNL1        0.0001
     22 C         150.6217  142.5684  153.7173 C.ar    1  UNL1        0.0015
     23 C         149.7600  141.7933  154.6694 C.ar    1  UNL1        0.0191
     24 C         148.3013  142.1190  154.7960 C.ar    1  UNL1        0.0814
     25 N         147.4395  141.3439  155.7482 N.ar    1  UNL1       -0.2422
     26 C         139.4508  139.4800  165.8530 C.3     1  UNL1        0.0774
     27 C         138.3182  139.0930  166.7570 C.3     1  UNL1        0.0259
     28 C         139.4440  139.9331  167.2828 C.3     1  UNL1        0.0420
     29 C         140.0902  140.6799  168.4120 C.ar    1  UNL1       -0.0208
     30 C         140.5179  139.9465  169.6485 C.ar    1  UNL1       -0.0042
     31 C         141.1640  140.6931  170.7777 C.ar    1  UNL1       -0.0003
     32 C         141.3824  142.1732  170.6703 C.ar    1  UNL1       -0.0000
     33 C         140.9546  142.9067  169.4337 C.ar    1  UNL1       -0.0003
     34 C         140.3086  142.1600  168.3046 C.ar    1  UNL1       -0.0042
@<TRIPOS>BOND
     1     1     2    2
     2     2     3   am
     3     3    26    1
     4    26    27    1
     5    27    28    1
     6    28    29    1
     7    29    30   ar
     8    30    31   ar
     9    31    32   ar
    10    32    33   ar
    11    33    34   ar
    12     2     4   am
    13     4     5    1
    14     5     6    1
    15     6     7    1
    16     7    11    1
    17    11    12   ar
    18    12    13   ar
    19    13    16    1
    20    16    17   ar
    21    17    18   ar
    22    18    19   ar
    23    19    20   ar
    24    20    21   ar
    25    21    22   ar
    26    22    23   ar
    27    23    24   ar
    28    24    25   ar
    29    13    14   ar
    30    14    15   ar
    31     7     8    1
    32     8     9    1
    33    28    26    1
    34    34    29   ar
    35     9     4    1
    36    15    11   ar
    37    25    16   ar
    38    24    19   ar
    39     3    10    1
@<TRIPOS>MOLECULE
*****
 34 39 0 0 0
SMALL
GASTEIGER

@<TRIPOS>ATOM
      1 O         143.8555  139.2314  164.8010 O.2     1  UNL1       -0.2526
      2 C         143.2023  140.0333  163.7146 C.2     1  UNL1        0.3039
      3 N         142.6996  141.4169  164.0027 N.am    1  UNL1       -0.2901
      4 N         143.0518  139.4518  162.3402 N.am    1  UNL1       -0.2642
      5 C         143.5545  138.0682  162.0521 C.3     1  UNL1        0.0954
      6 C         143.4041  137.4866  160.6777 C.3     1  UNL1        0.0309
      7 C         142.7509  138.2886  159.5913 C.3     1  UNL1        0.0827
      8 C         142.2481  139.6721  159.8794 C.3     1  UNL1        0.0309
      9 C         142.3986  140.2537  161.2538 C.3     1  UNL1        0.0954
     10 H         142.2709  141.9433  163.2896 H       1  UNL1        0.1509
     11 C         142.6004  137.7070  158.2169 C.ar    1  UNL1        0.2362
     12 N         142.8592  136.2810  157.8297 N.ar    1  UNL1       -0.1895
     13 C         142.5834  136.1420  156.3618 C.ar    1  UNL1        0.2210
     14 N         142.1542  137.4819  155.8418 N.ar    1  UNL1       -0.0544
     15 O         142.1647  138.4491  156.9883 O.2     1  UNL1       -0.3370
     16 C         142.7139  134.8839  155.5555 C.ar    1  UNL1        0.1202
     17 C         142.0152  134.7644  154.2336 C.ar    1  UNL1        0.0224
     18 C         142.1458  133.5063  153.4273 C.ar    1  UNL1        0.0031
     19 C         142.9750  132.3676  153.9429 C.ar    1  UNL1        0.0177
     20 C         143.1055  131.1095  153.1366 C.ar    1  UNL1        0.0015
     21 C         143.9348  129.9709  153.6523 C.ar    1  UNL1        0.0001
     22 C         144.6334  130.0904  154.9742 C.ar    1  UNL1        0.0015
     23 C         144.5029  131.3485  155.7805 C.ar    1  UNL1        0.0191
     24 C         143.6737  132.4871  155.2649 C.ar    1  UNL1        0.0814
     25 N         143.5432  133.7453  156.0712 N.ar    1  UNL1       -0.2422
     26 C         142.8501  141.9986  165.3772 C.3     1  UNL1        0.0774
     27 C         143.6090  142.8498  166.3515 C.3     1  UNL1        0.0259
     28 C         142.3518  142.1548  166.7833 C.3     1  UNL1        0.0420
     29 C         141.3383  141.8436  167.8445 C.ar    1  UNL1       -0.0208
     30 C         140.6762  140.4982  167.8778 C.ar    1  UNL1       -0.0042
     31 C         139.6628  140.1870  168.9390 C.ar    1  UNL1       -0.0003
     32 C         139.3114  141.2214  169.9668 C.ar    1  UNL1       -0.0000
     33 C         139.9735  142.5670  169.9335 C.ar    1  UNL1       -0.0003
     34 C         140.9870  142.8781  168.8724 C.ar    1  UNL1       -0.0042
@<TRIPOS>BOND
     1     1     2    2
     2     2     3   am
     3     3    26    1
     4    26    27    1
     5    27    28    1
     6    28    29    1
     7    29    30   ar
     8    30    31   ar
     9    31    32   ar
    10    32    33   ar
    11    33    34   ar
    12     2     4   am
    13     4     5    1
    14     5     6    1
    15     6     7    1
    16     7    11    1
    17    11    12   ar
    18    12    13   ar
    19    13    16    1
    20    16    17   ar
    21    17    18   ar
    22    18    19   ar
    23    19    20   ar
    24    20    21   ar
    25    21    22   ar
    26    22    23   ar
    27    23    24   ar
    28    24    25   ar
    29    13    14   ar
    30    14    15   ar
    31     7     8    1
    32     8     9    1
    33    28    26    1
    34    34    29   ar
    35     9     4    1
    36    15    11   ar
    37    25    16   ar
    38    24    19   ar
    39     3    10    1
@<TRIPOS>MOLECULE
*****
 34 39 0 0 0
SMALL
GASTEIGER

@<TRIPOS>ATOM
      1 O         138.7735  144.0501  155.3782 O.2     1  UNL1       -0.2526
      2 C         139.4267  144.5888  156.6165 C.2     1  UNL1        0.3039
      3 N         140.1847  145.8820  156.5626 N.am    1  UNL1       -0.2901
      4 N         139.3218  143.8342  157.9086 N.am    1  UNL1       -0.2642
      5 C         138.5638  142.5410  157.9624 C.3     1  UNL1        0.0954
      6 C         138.4589  141.7864  159.2546 C.3     1  UNL1        0.0309
      7 C         139.1121  142.3251  160.4928 C.3     1  UNL1        0.0827
      8 C         139.8701  143.6183  160.4390 C.3     1  UNL1        0.0309
      9 C         139.9750  144.3729  159.1468 C.3     1  UNL1        0.0954
     10 H         140.6134  146.2355  157.3753 H       1  UNL1        0.1509
     11 C         139.0072  141.5705  161.7849 C.ar    1  UNL1        0.2362
     12 N         140.0372  141.5415  162.8752 N.ar    1  UNL1       -0.1895
     13 C         139.5204  140.6655  163.9777 C.ar    1  UNL1        0.2210
     14 N         138.1712  140.1531  163.5690 N.ar    1  UNL1       -0.0544
     15 O         137.8540  140.7124  162.2138 O.2     1  UNL1       -0.3370
     16 C         140.2287  140.3562  165.2633 C.ar    1  UNL1        0.1202
     17 C         141.6423  139.8550  165.2391 C.ar    1  UNL1        0.0224
     18 C         142.3506  139.5457  166.5246 C.ar    1  UNL1        0.0031
     19 C         141.6452  139.7376  167.8345 C.ar    1  UNL1        0.0177
     20 C         142.3535  139.4283  169.1200 C.ar    1  UNL1        0.0015
     21 C         141.6482  139.6201  170.4298 C.ar    1  UNL1        0.0001
     22 C         140.2346  140.1212  170.4541 C.ar    1  UNL1        0.0015
     23 C         139.5263  140.4305  169.1686 C.ar    1  UNL1        0.0191
     24 C         140.2316  140.2387  167.8588 C.ar    1  UNL1        0.0814
     25 N         139.5234  140.5480  166.5731 N.ar    1  UNL1       -0.2422
     26 C         140.2896  146.6367  155.2704 C.3     1  UNL1        0.0774
     27 C         140.6918  146.6902  153.8264 C.3     1  UNL1        0.0259
     28 C         140.0690  147.8900  154.4765 C.3     1  UNL1        0.0420
     29 C         139.5821  149.3064  154.3934 C.ar    1  UNL1       -0.0208
     30 C         139.7640  150.0888  153.1268 C.ar    1  UNL1       -0.0042
     31 C         139.2771  151.5052  153.0436 C.ar    1  UNL1       -0.0003
     32 C         138.6084  152.1390  154.2272 C.ar    1  UNL1       -0.0000
     33 C         138.4265  151.3565  155.4940 C.ar    1  UNL1       -0.0003
     34 C         138.9134  149.9403  155.5770 C.ar    1  UNL1       -0.0042
@<TRIPOS>BOND
     1     1     2    2
     2     2     3   am
     3     3    26    1
     4    26    27    1
     5    27    28    1
     6    28    29    1
     7    29    30   ar
     8    30    31   ar
     9    31    32   ar
    10    32    33   ar
    11    33    34   ar
    12     2     4   am
    13     4     5    1
    14     5     6    1
    15     6     7    1
    16     7    11    1
    17    11    12   ar
    18    12    13   ar
    19    13    16    1
    20    16    17   ar
    21    17    18   ar
    22    18    19   ar
    23    19    20   ar
    24    20    21   ar
    25    21    22   ar
    26    22    23   ar
    27    23    24   ar
    28    24    25   ar
    29    13    14   ar
    30    14    15   ar
    31     7     8    1
    32     8     9    1
    33    28    26    1
    34    34    29   ar
    35     9     4    1
    36    15    11   ar
    37    25    16   ar
    38    24    19   ar
    39     3    10    1
@<TRIPOS>MOLECULE
*****
 34 39 0 0 0
SMALL
GASTEIGER

@<TRIPOS>ATOM
      1 O         143.2854  136.2790  156.3375 O.2     1  UNL1       -0.2526
      2 C         141.8549  136.6529  156.5904 C.2     1  UNL1        0.3039
      3 N         140.7818  136.1931  155.6487 N.am    1  UNL1       -0.2901
      4 N         141.4977  137.4867  157.7850 N.am    1  UNL1       -0.2642
      5 C         142.5709  137.9465  158.7268 C.3     1  UNL1        0.0954
      6 C         142.2136  138.7803  159.9214 C.3     1  UNL1        0.0309
      7 C         140.7831  139.1542  160.1743 C.3     1  UNL1        0.0827
      8 C         139.7099  138.6944  159.2326 C.3     1  UNL1        0.0309
      9 C         140.0672  137.8607  158.0380 C.3     1  UNL1        0.0954
     10 H         139.8429  136.4386  155.8147 H       1  UNL1        0.1509
     11 C         140.4258  139.9880  161.3689 C.ar    1  UNL1        0.2362
     12 N         140.4036  139.5220  162.7946 N.ar    1  UNL1       -0.1895
     13 C         139.9921  140.6802  163.6544 C.ar    1  UNL1        0.2210
     14 N         139.7600  141.8619  162.7602 N.ar    1  UNL1       -0.0544
     15 O         140.0280  141.4342  161.3477 O.2     1  UNL1       -0.3370
     16 C         139.8395  140.6601  165.1465 C.ar    1  UNL1        0.1202
     17 C         139.2097  139.4770  165.8201 C.ar    1  UNL1        0.0224
     18 C         139.0571  139.4569  167.3122 C.ar    1  UNL1        0.0031
     19 C         139.5343  140.6198  168.1307 C.ar    1  UNL1        0.0177
     20 C         139.3817  140.5997  169.6228 C.ar    1  UNL1        0.0015
     21 C         139.8588  141.7626  170.4412 C.ar    1  UNL1        0.0001
     22 C         140.4886  142.9456  169.7676 C.ar    1  UNL1        0.0015
     23 C         140.6413  142.9658  168.2756 C.ar    1  UNL1        0.0191
     24 C         140.1641  141.8029  167.4571 C.ar    1  UNL1        0.0814
     25 N         140.3167  141.8230  165.9650 N.ar    1  UNL1       -0.2422
     26 C         141.1390  135.3593  154.4540 C.3     1  UNL1        0.0774
     27 C         141.0801  135.1163  152.9750 C.3     1  UNL1        0.0259
     28 C         141.8166  134.1584  153.8638 C.3     1  UNL1        0.0420
     29 C         142.6332  132.9119  154.0361 C.ar    1  UNL1       -0.0208
     30 C         142.6851  131.8916  152.9379 C.ar    1  UNL1       -0.0042
     31 C         143.5016  130.6452  153.1101 C.ar    1  UNL1       -0.0003
     32 C         144.2661  130.4190  154.3807 C.ar    1  UNL1       -0.0000
     33 C         144.2142  131.4394  155.4790 C.ar    1  UNL1       -0.0003
     34 C         143.3977  132.6858  155.3067 C.ar    1  UNL1       -0.0042
@<TRIPOS>BOND
     1     1     2    2
     2     2     3   am
     3     3    26    1
     4    26    27    1
     5    27    28    1
     6    28    29    1
     7    29    30   ar
     8    30    31   ar
     9    31    32   ar
    10    32    33   ar
    11    33    34   ar
    12     2     4   am
    13     4     5    1
    14     5     6    1
    15     6     7    1
    16     7    11    1
    17    11    12   ar
    18    12    13   ar
    19    13    16    1
    20    16    17   ar
    21    17    18   ar
    22    18    19   ar
    23    19    20   ar
    24    20    21   ar
    25    21    22   ar
    26    22    23   ar
    27    23    24   ar
    28    24    25   ar
    29    13    14   ar
    30    14    15   ar
    31     7     8    1
    32     8     9    1
    33    28    26    1
    34    34    29   ar
    35     9     4    1
    36    15    11   ar
    37    25    16   ar
    38    24    19   ar
    39     3    10    1
@<TRIPOS>MOLECULE
*****
 34 39 0 0 0
SMALL
GASTEIGER

@<TRIPOS>ATOM
      1 O         145.6238  140.9432  156.4447 O.2     1  UNL1       -0.2526
      2 C         144.8031  142.1812  156.6540 C.2     1  UNL1        0.3039
      3 N         144.8272  143.2787  155.6318 N.am    1  UNL1       -0.2901
      4 N         143.9584  142.3217  157.8855 N.am    1  UNL1       -0.2642
      5 C         143.9343  141.2242  158.9077 C.3     1  UNL1        0.0954
      6 C         143.0896  141.3648  160.1392 C.3     1  UNL1        0.0309
      7 C         142.2689  142.6028  160.3485 C.3     1  UNL1        0.0827
      8 C         142.2930  143.7003  159.3263 C.3     1  UNL1        0.0309
      9 C         143.1377  143.5598  158.0948 C.3     1  UNL1        0.0954
     10 H         144.2885  144.0913  155.7692 H       1  UNL1        0.1509
     11 C         141.4242  142.7433  161.5800 C.ar    1  UNL1        0.2362
     12 N         141.5763  141.9565  162.8481 N.ar    1  UNL1       -0.1895
     13 C         140.5251  142.4223  163.8115 C.ar    1  UNL1        0.2210
     14 N         139.7233  143.4969  163.1389 N.ar    1  UNL1       -0.0544
     15 O         140.2789  143.6953  161.7598 O.2     1  UNL1       -0.3370
     16 C         140.3129  141.9043  165.2032 C.ar    1  UNL1        0.1202
     17 C         139.8826  140.4834  165.4171 C.ar    1  UNL1        0.0224
     18 C         139.6705  139.9654  166.8087 C.ar    1  UNL1        0.0031
     19 C         139.8887  140.8683  167.9865 C.ar    1  UNL1        0.0177
     20 C         139.6765  140.3503  169.3781 C.ar    1  UNL1        0.0015
     21 C         139.8947  141.2532  170.5558 C.ar    1  UNL1        0.0001
     22 C         140.3250  142.6742  170.3419 C.ar    1  UNL1        0.0015
     23 C         140.5372  143.1922  168.9503 C.ar    1  UNL1        0.0191
     24 C         140.3190  142.2892  167.7726 C.ar    1  UNL1        0.0814
     25 N         140.5311  142.8072  166.3809 N.ar    1  UNL1       -0.2422
     26 C         145.6720  143.1382  154.4002 C.3     1  UNL1        0.0774
     27 C         145.7886  143.0630  152.9067 C.3     1  UNL1        0.0259
     28 C         147.0183  142.9702  153.7607 C.3     1  UNL1        0.0420
     29 C         148.5056  142.8195  153.8845 C.ar    1  UNL1       -0.0208
     30 C         149.0817  141.8622  154.8852 C.ar    1  UNL1       -0.0042
     31 C         150.5690  141.7116  155.0091 C.ar    1  UNL1       -0.0003
     32 C         151.4801  142.5182  154.1321 C.ar    1  UNL1       -0.0000
     33 C         150.9039  143.4756  153.1313 C.ar    1  UNL1       -0.0003
     34 C         149.4167  143.6262  153.0075 C.ar    1  UNL1       -0.0042
@<TRIPOS>BOND
     1     1     2    2
     2     2     3   am
     3     3    26    1
     4    26    27    1
     5    27    28    1
     6    28    29    1
     7    29    30   ar
     8    30    31   ar
     9    31    32   ar
    10    32    33   ar
    11    33    34   ar
    12     2     4   am
    13     4     5    1
    14     5     6    1
    15     6     7    1
    16     7    11    1
    17    11    12   ar
    18    12    13   ar
    19    13    16    1
    20    16    17   ar
    21    17    18   ar
    22    18    19   ar
    23    19    20   ar
    24    20    21   ar
    25    21    22   ar
    26    22    23   ar
    27    23    24   ar
    28    24    25   ar
    29    13    14   ar
    30    14    15   ar
    31     7     8    1
    32     8     9    1
    33    28    26    1
    34    34    29   ar
    35     9     4    1
    36    15    11   ar
    37    25    16   ar
    38    24    19   ar
    39     3    10    1
@<TRIPOS>MOLECULE
*****
 34 39 0 0 0
SMALL
GASTEIGER

@<TRIPOS>ATOM
      1 O         144.1384  139.7022  155.3819 O.2     1  UNL1       -0.2526
      2 C         143.9813  140.6447  156.5382 C.2     1  UNL1        0.3039
      3 N         144.4998  142.0486  156.4373 N.am    1  UNL1       -0.2901
      4 N         143.3056  140.1834  157.7954 N.am    1  UNL1       -0.2642
      5 C         142.7870  138.7795  157.8963 C.3     1  UNL1        0.0954
      6 C         142.1113  138.3181  159.1535 C.3     1  UNL1        0.0309
      7 C         141.9541  139.2607  160.3098 C.3     1  UNL1        0.0827
      8 C         142.4727  140.6645  160.2089 C.3     1  UNL1        0.0309
      9 C         143.1484  141.1259  158.9517 C.3     1  UNL1        0.0954
     10 H         144.3967  142.6672  157.1962 H       1  UNL1        0.1509
     11 C         141.2784  138.7993  161.5669 C.ar    1  UNL1        0.2362
     12 N         141.1898  139.5666  162.8529 N.ar    1  UNL1       -0.1895
     13 C         140.4293  138.7311  163.8396 C.ar    1  UNL1        0.2210
     14 N         140.0479  137.4475  163.1636 N.ar    1  UNL1       -0.0544
     15 O         140.5726  137.4897  161.7590 O.2     1  UNL1       -0.3370
     16 C         140.1068  139.1123  165.2541 C.ar    1  UNL1        0.1202
     17 C         138.7146  138.9292  165.7814 C.ar    1  UNL1        0.0224
     18 C         138.3921  139.3104  167.1958 C.ar    1  UNL1        0.0031
     19 C         139.4619  139.8747  168.0831 C.ar    1  UNL1        0.0177
     20 C         139.1394  140.2559  169.4975 C.ar    1  UNL1        0.0015
     21 C         140.2091  140.8203  170.3846 C.ar    1  UNL1        0.0001
     22 C         141.6014  141.0034  169.8573 C.ar    1  UNL1        0.0015
     23 C         141.9239  140.6222  168.4429 C.ar    1  UNL1        0.0191
     24 C         140.8541  140.0579  167.5558 C.ar    1  UNL1        0.0814
     25 N         141.1766  139.6767  166.1413 N.ar    1  UNL1       -0.2422
     26 C         145.1756  142.5100  155.1801 C.3     1  UNL1        0.0774
     27 C         145.0952  143.1030  153.8047 C.3     1  UNL1        0.0259
     28 C         146.4262  142.7162  154.3781 C.3     1  UNL1        0.0420
     29 C         147.9168  142.6120  154.2461 C.ar    1  UNL1       -0.0208
     30 C         148.6359  143.4194  153.2064 C.ar    1  UNL1       -0.0042
     31 C         150.1264  143.3152  153.0743 C.ar    1  UNL1       -0.0003
     32 C         150.8978  142.4036  153.9820 C.ar    1  UNL1       -0.0000
     33 C         150.1787  141.5962  155.0217 C.ar    1  UNL1       -0.0003
     34 C         148.6883  141.7004  155.1537 C.ar    1  UNL1       -0.0042
@<TRIPOS>BOND
     1     1     2    2
     2     2     3   am
     3     3    26    1
     4    26    27    1
     5    27    28    1
     6    28    29    1
     7    29    30   ar
     8    30    31   ar
     9    31    32   ar
    10    32    33   ar
    11    33    34   ar
    12     2     4   am
    13     4     5    1
    14     5     6    1
    15     6     7    1
    16     7    11    1
    17    11    12   ar
    18    12    13   ar
    19    13    16    1
    20    16    17   ar
    21    17    18   ar
    22    18    19   ar
    23    19    20   ar
    24    20    21   ar
    25    21    22   ar
    26    22    23   ar
    27    23    24   ar
    28    24    25   ar
    29    13    14   ar
    30    14    15   ar
    31     7     8    1
    32     8     9    1
    33    28    26    1
    34    34    29   ar
    35     9     4    1
    36    15    11   ar
    37    25    16   ar
    38    24    19   ar
    39     3    10    1
