@<TRIPOS>MOLECULE
*****
 27 30 0 0 0
SMALL
GASTEIGER

@<TRIPOS>ATOM
      1 C         139.3336  139.8893  167.6819 C.ar    1  UNL1        0.0930
      2 C         138.0630  139.1226  167.9008 C.ar    1  UNL1        0.1067
      3 N         137.6089  138.5897  166.5742 N.ar    1  UNL1       -0.2252
      4 C         138.5987  139.0271  165.5355 C.ar    1  UNL1        0.1586
      5 N         138.6672  138.7978  164.0548 N.ar    1  UNL1       -0.3349
      6 C         139.8015  139.3716  163.2586 C.ar    1  UNL1        0.0944
      7 C         140.8675  140.1748  163.9433 C.ar    1  UNL1        0.1171
      8 N         140.7990  140.4041  165.4240 N.ar    1  UNL1       -0.2391
      9 C         139.6647  139.8303  166.2201 C.ar    1  UNL1        0.1210
     10 H         137.9676  138.2706  163.6054 H       1  UNL1        0.1675
     11 C         142.0019  140.7486  163.1470 C.ar    1  UNL1        0.1136
     12 N         142.8182  140.0180  162.1225 N.ar    1  UNL1       -0.2227
     13 C         143.8400  140.9716  161.5778 C.ar    1  UNL1        0.1783
     14 N         143.6551  142.2917  162.2658 N.ar    1  UNL1       -0.3125
     15 C         142.5191  142.1538  163.2356 C.ar    1  UNL1        0.0576
     16 C         142.1024  143.3257  164.0741 C.3     1  UNL1        0.0455
     17 C         142.8216  144.6355  163.9427 C.3     1  UNL1        0.0083
     18 C         143.9577  144.7732  162.9729 C.3     1  UNL1        0.0249
     19 C         144.3743  143.6014  162.1345 C.3     1  UNL1        0.1073
     20 N         141.0220  141.7411  168.3676 N.am    1  UNL1       -0.3039
     21 C         140.1327  140.5917  168.7393 C.2     1  UNL1        0.2488
     22 O         140.0427  140.1448  170.1682 O.2     1  UNL1       -0.2700
     23 H         141.0811  142.0345  167.4296 H       1  UNL1        0.1496
     24 C         140.6917  143.4074  169.6381 C.3     1  UNL1        0.0196
     25 C         141.8212  142.4436  169.4249 C.3     1  UNL1        0.0572
     26 C         142.9506  141.4797  169.2116 C.3     1  UNL1        0.0196
     27 C         142.6203  143.1459  170.4822 C.3     1  UNL1        0.0196
@<TRIPOS>BOND
     1    24    25    1
     2    25    26    1
     3    25    27    1
     4    25    20    1
     5    20    21   am
     6    21    22    2
     7    21     1    1
     8     1     2   ar
     9     2     3   ar
    10     3     4   ar
    11     4     5   ar
    12     5     6   ar
    13     6     7   ar
    14     7    11    1
    15    11    12   ar
    16    12    13   ar
    17    13    14   ar
    18    14    15   ar
    19    15    16    1
    20    16    17    1
    21    17    18    1
    22    18    19    1
    23     7     8   ar
    24     8     9   ar
    25     9     1   ar
    26     9     4    1
    27    15    11   ar
    28    19    14    1
    29    20    23    1
    30     5    10    1
@<TRIPOS>MOLECULE
*****
 27 30 0 0 0
SMALL
GASTEIGER

@<TRIPOS>ATOM
      1 C         138.6812  140.7792  161.7644 C.ar    1  UNL1        0.0930
      2 C         138.3273  139.7893  160.6944 C.ar    1  UNL1        0.1067
      3 N         138.3122  138.4231  161.3135 N.ar    1  UNL1       -0.2252
      4 C         138.6568  138.5686  162.7662 C.ar    1  UNL1        0.1586
      5 N         138.7923  137.5634  163.8711 N.ar    1  UNL1       -0.3349
      6 C         139.1559  138.0142  165.2547 C.ar    1  UNL1        0.0944
      7 C         139.3840  139.4704  165.5334 C.ar    1  UNL1        0.1171
      8 N         139.2485  140.4756  164.4284 N.ar    1  UNL1       -0.2391
      9 C         138.8848  140.0248  163.0448 C.ar    1  UNL1        0.1210
     10 H         138.6426  136.6077  163.6882 H       1  UNL1        0.1675
     11 C         139.7476  139.9212  166.9171 C.ar    1  UNL1        0.1136
     12 N         138.9836  139.6190  168.1721 N.ar    1  UNL1       -0.2227
     13 C         139.7028  140.2644  169.3194 C.ar    1  UNL1        0.1783
     14 N         140.9114  140.9654  168.7734 N.ar    1  UNL1       -0.3125
     15 C         140.9390  140.7533  167.2887 C.ar    1  UNL1        0.0576
     16 C         142.0455  141.3453  166.4670 C.3     1  UNL1        0.0455
     17 C         143.1244  142.1493  167.1299 C.3     1  UNL1        0.0083
     18 C         143.0967  142.3614  168.6147 C.3     1  UNL1        0.0249
     19 C         141.9903  141.7695  169.4363 C.3     1  UNL1        0.1073
     20 N         139.7504  143.0447  162.4532 N.am    1  UNL1       -0.3039
     21 C         138.8091  142.2630  161.5854 C.2     1  UNL1        0.2488
     22 O         137.9957  142.9651  160.5389 O.2     1  UNL1       -0.2700
     23 H         140.2843  142.5839  163.1401 H       1  UNL1        0.1496
     24 C         140.9738  144.3132  161.2724 C.3     1  UNL1        0.0196
     25 C         139.8783  144.5285  162.2742 C.3     1  UNL1        0.0572
     26 C         138.7828  144.7437  163.2760 C.3     1  UNL1        0.0196
     27 C         140.0062  146.0122  162.0953 C.3     1  UNL1        0.0196
@<TRIPOS>BOND
     1    24    25    1
     2    25    26    1
     3    25    27    1
     4    25    20    1
     5    20    21   am
     6    21    22    2
     7    21     1    1
     8     1     2   ar
     9     2     3   ar
    10     3     4   ar
    11     4     5   ar
    12     5     6   ar
    13     6     7   ar
    14     7    11    1
    15    11    12   ar
    16    12    13   ar
    17    13    14   ar
    18    14    15   ar
    19    15    16    1
    20    16    17    1
    21    17    18    1
    22    18    19    1
    23     7     8   ar
    24     8     9   ar
    25     9     1   ar
    26     9     4    1
    27    15    11   ar
    28    19    14    1
    29    20    23    1
    30     5    10    1
@<TRIPOS>MOLECULE
*****
 27 30 0 0 0
SMALL
GASTEIGER

@<TRIPOS>ATOM
      1 C         143.6066  140.2511  162.1595 C.ar    1  UNL1        0.0930
      2 C         144.1748  139.4417  161.0316 C.ar    1  UNL1        0.1067
      3 N         143.5035  138.1004  161.0396 N.ar    1  UNL1       -0.2252
      4 C         142.5204  138.0807  162.1723 C.ar    1  UNL1        0.1586
      5 N         141.5754  137.0242  162.6630 N.ar    1  UNL1       -0.3349
      6 C         140.6942  137.2969  163.8457 C.ar    1  UNL1        0.0944
      7 C         140.7579  138.6262  164.5379 C.ar    1  UNL1        0.1171
      8 N         141.7029  139.6827  164.0473 N.ar    1  UNL1       -0.2391
      9 C         142.5841  139.4100  162.8645 C.ar    1  UNL1        0.1210
     10 H         141.5336  136.1518  162.2087 H       1  UNL1        0.1675
     11 C         139.8766  138.8989  165.7207 C.ar    1  UNL1        0.1136
     12 N         138.4328  138.5138  165.8519 N.ar    1  UNL1       -0.2227
     13 C         137.9483  138.9814  167.1922 C.ar    1  UNL1        0.1783
     14 N         139.0926  139.6555  167.8894 N.ar    1  UNL1       -0.3125
     15 C         140.2844  139.6045  166.9800 C.ar    1  UNL1        0.0576
     16 C         141.5870  140.2072  167.4161 C.3     1  UNL1        0.0455
     17 C         141.6978  140.8609  168.7615 C.3     1  UNL1        0.0083
     18 C         140.5059  140.9119  169.6710 C.3     1  UNL1        0.0249
     19 C         139.2034  140.3092  169.2349 C.3     1  UNL1        0.1073
     20 N         143.0832  142.4881  163.3728 N.am    1  UNL1       -0.3039
     21 C         143.9930  141.6551  162.5192 C.2     1  UNL1        0.2488
     22 O         145.2891  142.2262  162.0254 O.2     1  UNL1       -0.2700
     23 H         142.2325  142.1133  163.6969 H       1  UNL1        0.1496
     24 C         144.1614  143.3862  164.9637 C.3     1  UNL1        0.0196
     25 C         143.4697  143.8921  163.7325 C.3     1  UNL1        0.0572
     26 C         142.7780  144.3980  162.5014 C.3     1  UNL1        0.0196
     27 C         143.8561  145.2961  164.0923 C.3     1  UNL1        0.0196
@<TRIPOS>BOND
     1    24    25    1
     2    25    26    1
     3    25    27    1
     4    25    20    1
     5    20    21   am
     6    21    22    2
     7    21     1    1
     8     1     2   ar
     9     2     3   ar
    10     3     4   ar
    11     4     5   ar
    12     5     6   ar
    13     6     7   ar
    14     7    11    1
    15    11    12   ar
    16    12    13   ar
    17    13    14   ar
    18    14    15   ar
    19    15    16    1
    20    16    17    1
    21    17    18    1
    22    18    19    1
    23     7     8   ar
    24     8     9   ar
    25     9     1   ar
    26     9     4    1
    27    15    11   ar
    28    19    14    1
    29    20    23    1
    30     5    10    1
@<TRIPOS>MOLECULE
*****
 27 30 0 0 0
SMALL
GASTEIGER

@<TRIPOS>ATOM
      1 C         140.5132  141.1576  162.7796 C.ar    1  UNL1        0.0930
      2 C         139.9055  140.4303  161.6170 C.ar    1  UNL1        0.1067
      3 N         139.0433  139.3288  162.1587 N.ar    1  UNL1       -0.2252
      4 C         139.1182  139.3754  163.6561 C.ar    1  UNL1        0.1586
      5 N         138.4766  138.5346  164.7198 N.ar    1  UNL1       -0.3349
      6 C         138.7434  138.8241  166.1671 C.ar    1  UNL1        0.0944
      7 C         139.6519  139.9544  166.5509 C.ar    1  UNL1        0.1171
      8 N         140.2935  140.7951  165.4872 N.ar    1  UNL1       -0.2391
      9 C         140.0267  140.5056  164.0399 C.ar    1  UNL1        0.1210
     10 H         137.8804  137.7928  164.4679 H       1  UNL1        0.1675
     11 C         139.9187  140.2438  167.9983 C.ar    1  UNL1        0.1136
     12 N         139.0638  139.8176  169.1549 N.ar    1  UNL1       -0.2227
     13 C         139.7039  140.3207  170.4147 C.ar    1  UNL1        0.1783
     14 N         140.9544  141.0578  170.0368 N.ar    1  UNL1       -0.3125
     15 C         141.0872  141.0103  168.5434 C.ar    1  UNL1        0.0576
     16 C         142.2549  141.6712  167.8728 C.3     1  UNL1        0.0455
     17 C         143.2899  142.3795  168.6956 C.3     1  UNL1        0.0083
     18 C         143.1571  142.4270  170.1890 C.3     1  UNL1        0.0249
     19 C         141.9895  141.7662  170.8595 C.3     1  UNL1        0.1073
     20 N         141.9016  143.0155  163.9505 N.am    1  UNL1       -0.3039
     21 C         141.4440  142.3309  162.6966 C.2     1  UNL1        0.2488
     22 O         141.9173  142.8197  161.3598 O.2     1  UNL1       -0.2700
     23 H         141.5910  142.6947  164.8279 H       1  UNL1        0.1496
     24 C         141.6587  145.1083  163.7037 C.3     1  UNL1        0.0196
     25 C         142.8325  144.1888  163.8674 C.3     1  UNL1        0.0572
     26 C         144.0062  143.2692  164.0312 C.3     1  UNL1        0.0196
     27 C         143.7632  145.3620  163.7844 C.3     1  UNL1        0.0196
@<TRIPOS>BOND
     1    24    25    1
     2    25    26    1
     3    25    27    1
     4    25    20    1
     5    20    21   am
     6    21    22    2
     7    21     1    1
     8     1     2   ar
     9     2     3   ar
    10     3     4   ar
    11     4     5   ar
    12     5     6   ar
    13     6     7   ar
    14     7    11    1
    15    11    12   ar
    16    12    13   ar
    17    13    14   ar
    18    14    15   ar
    19    15    16    1
    20    16    17    1
    21    17    18    1
    22    18    19    1
    23     7     8   ar
    24     8     9   ar
    25     9     1   ar
    26     9     4    1
    27    15    11   ar
    28    19    14    1
    29    20    23    1
    30     5    10    1
@<TRIPOS>MOLECULE
*****
 27 30 0 0 0
SMALL
GASTEIGER

@<TRIPOS>ATOM
      1 C         141.2938  143.0300  161.4237 C.ar    1  UNL1        0.0930
      2 C         140.7269  143.7222  160.2197 C.ar    1  UNL1        0.1067
      3 N         139.2314  143.6354  160.2966 N.ar    1  UNL1       -0.2252
      4 C         138.8740  142.8897  161.5480 C.ar    1  UNL1        0.1586
      5 N         137.5526  142.5029  162.1433 N.ar    1  UNL1       -0.3349
      6 C         137.5059  141.7421  163.4351 C.ar    1  UNL1        0.0944
      7 C         138.7806  141.3679  164.1317 C.ar    1  UNL1        0.1171
      8 N         140.1019  141.7546  163.5364 N.ar    1  UNL1       -0.2391
      9 C         140.1487  142.5155  162.2446 C.ar    1  UNL1        0.1210
     10 H         136.7160  142.7485  161.6861 H       1  UNL1        0.1675
     11 C         138.7338  140.6070  165.4236 C.ar    1  UNL1        0.1136
     12 N         137.9417  139.3601  165.6842 N.ar    1  UNL1       -0.2227
     13 C         138.1892  138.9418  167.1033 C.ar    1  UNL1        0.1783
     14 N         139.1343  139.9303  167.7197 N.ar    1  UNL1       -0.3125
     15 C         139.4708  140.9593  166.6815 C.ar    1  UNL1        0.0576
     16 C         140.4050  142.0843  167.0159 C.3     1  UNL1        0.0455
     17 C         141.0026  142.1803  168.3883 C.3     1  UNL1        0.0083
     18 C         140.6660  141.1511  169.4265 C.3     1  UNL1        0.0249
     19 C         139.7319  140.0262  169.0921 C.3     1  UNL1        0.1073
     20 N         143.1748  142.0283  162.9099 N.am    1  UNL1       -0.3039
     21 C         142.7502  142.8789  161.7495 C.2     1  UNL1        0.2488
     22 O         143.7819  143.5783  160.9152 O.2     1  UNL1       -0.2700
     23 H         142.4976  141.5692  163.4575 H       1  UNL1        0.1496
     24 C         144.7186  140.7068  162.3016 C.3     1  UNL1        0.0196
     25 C         144.6312  141.8772  163.2357 C.3     1  UNL1        0.0572
     26 C         144.5436  143.0476  164.1698 C.3     1  UNL1        0.0196
     27 C         146.0874  141.7260  163.5615 C.3     1  UNL1        0.0196
@<TRIPOS>BOND
     1    24    25    1
     2    25    26    1
     3    25    27    1
     4    25    20    1
     5    20    21   am
     6    21    22    2
     7    21     1    1
     8     1     2   ar
     9     2     3   ar
    10     3     4   ar
    11     4     5   ar
    12     5     6   ar
    13     6     7   ar
    14     7    11    1
    15    11    12   ar
    16    12    13   ar
    17    13    14   ar
    18    14    15   ar
    19    15    16    1
    20    16    17    1
    21    17    18    1
    22    18    19    1
    23     7     8   ar
    24     8     9   ar
    25     9     1   ar
    26     9     4    1
    27    15    11   ar
    28    19    14    1
    29    20    23    1
    30     5    10    1
@<TRIPOS>MOLECULE
*****
 27 30 0 0 0
SMALL
GASTEIGER

@<TRIPOS>ATOM
      1 C         139.6198  140.7222  167.0466 C.ar    1  UNL1        0.0930
      2 C         138.8727  139.4598  167.3596 C.ar    1  UNL1        0.1067
      3 N         138.0000  139.1341  166.1839 N.ar    1  UNL1       -0.2252
      4 C         138.2077  140.1953  165.1443 C.ar    1  UNL1        0.1586
      5 N         137.6147  140.3946  163.7811 N.ar    1  UNL1       -0.3349
      6 C         138.0227  141.5755  162.9510 C.ar    1  UNL1        0.0944
      7 C         139.0238  142.5570  163.4842 C.ar    1  UNL1        0.1171
      8 N         139.6169  142.3577  164.8475 N.ar    1  UNL1       -0.2391
      9 C         139.2089  141.1768  165.6775 C.ar    1  UNL1        0.1210
     10 H         136.9576  139.7504  163.4311 H       1  UNL1        0.1675
     11 C         139.4319  143.7379  162.6541 C.ar    1  UNL1        0.1136
     12 N         139.1393  145.1763  162.9633 N.ar    1  UNL1       -0.2227
     13 C         139.7307  146.0151  161.8694 C.ar    1  UNL1        0.1783
     14 N         140.3888  145.0951  160.8841 N.ar    1  UNL1       -0.3125
     15 C         140.2041  143.6878  161.3691 C.ar    1  UNL1        0.0576
     16 C         140.7630  142.5424  160.5780 C.3     1  UNL1        0.0455
     17 C         141.5065  142.8044  159.3019 C.3     1  UNL1        0.0083
     18 C         141.6912  144.2119  158.8170 C.3     1  UNL1        0.0249
     19 C         141.1323  145.3571  159.6080 C.3     1  UNL1        0.1073
     20 N         142.0131  140.9016  168.0418 N.am    1  UNL1       -0.3039
     21 C         140.6050  141.4095  167.9450 C.2     1  UNL1        0.2488
     22 O         140.1822  142.6047  168.7467 O.2     1  UNL1       -0.2700
     23 H         142.2907  140.1171  167.5156 H       1  UNL1        0.1496
     24 C         142.6016  140.6830  170.0680 C.3     1  UNL1        0.0196
     25 C         142.9983  141.5889  168.9402 C.3     1  UNL1        0.0572
     26 C         143.3949  142.4947  167.8123 C.3     1  UNL1        0.0196
     27 C         143.9834  142.2761  169.8385 C.3     1  UNL1        0.0196
@<TRIPOS>BOND
     1    24    25    1
     2    25    26    1
     3    25    27    1
     4    25    20    1
     5    20    21   am
     6    21    22    2
     7    21     1    1
     8     1     2   ar
     9     2     3   ar
    10     3     4   ar
    11     4     5   ar
    12     5     6   ar
    13     6     7   ar
    14     7    11    1
    15    11    12   ar
    16    12    13   ar
    17    13    14   ar
    18    14    15   ar
    19    15    16    1
    20    16    17    1
    21    17    18    1
    22    18    19    1
    23     7     8   ar
    24     8     9   ar
    25     9     1   ar
    26     9     4    1
    27    15    11   ar
    28    19    14    1
    29    20    23    1
    30     5    10    1
@<TRIPOS>MOLECULE
*****
 27 30 0 0 0
SMALL
GASTEIGER

@<TRIPOS>ATOM
      1 C         139.5395  139.7552  167.3063 C.ar    1  UNL1        0.0930
      2 C         138.2180  139.1764  167.7168 C.ar    1  UNL1        0.1067
      3 N         137.6683  138.4054  166.5534 N.ar    1  UNL1       -0.2252
      4 C         138.6500  138.5077  165.4240 C.ar    1  UNL1        0.1586
      5 N         138.6403  137.9490  164.0320 N.ar    1  UNL1       -0.3349
      6 C         139.7871  138.2246  163.1052 C.ar    1  UNL1        0.0944
      7 C         140.9437  139.0588  163.5705 C.ar    1  UNL1        0.1171
      8 N         140.9534  139.6175  164.9625 N.ar    1  UNL1       -0.2391
      9 C         139.8066  139.3420  165.8893 C.ar    1  UNL1        0.1210
     10 H         137.8813  137.4015  163.7266 H       1  UNL1        0.1675
     11 C         142.0905  139.3344  162.6437 C.ar    1  UNL1        0.1136
     12 N         143.0986  138.3316  162.1661 N.ar    1  UNL1       -0.2227
     13 C         144.0617  139.0385  161.2590 C.ar    1  UNL1        0.1783
     14 N         143.6488  140.4782  161.1761 N.ar    1  UNL1       -0.3125
     15 C         142.4305  140.6610  162.0319 C.ar    1  UNL1        0.0576
     16 C         141.7882  142.0120  162.1435 C.3     1  UNL1        0.0455
     17 C         142.3641  143.1800  161.3993 C.3     1  UNL1        0.0083
     18 C         143.5825  142.9971  160.5434 C.3     1  UNL1        0.0249
     19 C         144.2247  141.6463  160.4319 C.3     1  UNL1        0.1073
     20 N         141.9261  140.4552  168.0577 N.am    1  UNL1       -0.3039
     21 C         140.4366  140.5991  168.1625 C.2     1  UNL1        0.2488
     22 O         139.8444  141.5869  169.1234 O.2     1  UNL1       -0.2700
     23 H         142.3149  139.8069  167.4271 H       1  UNL1        0.1496
     24 C         142.7331  140.2810  170.0118 C.3     1  UNL1        0.0196
     25 C         142.8232  141.2992  168.9139 C.3     1  UNL1        0.0572
     26 C         142.9132  142.3173  167.8161 C.3     1  UNL1        0.0196
     27 C         143.7202  142.1430  169.7701 C.3     1  UNL1        0.0196
@<TRIPOS>BOND
     1    24    25    1
     2    25    26    1
     3    25    27    1
     4    25    20    1
     5    20    21   am
     6    21    22    2
     7    21     1    1
     8     1     2   ar
     9     2     3   ar
    10     3     4   ar
    11     4     5   ar
    12     5     6   ar
    13     6     7   ar
    14     7    11    1
    15    11    12   ar
    16    12    13   ar
    17    13    14   ar
    18    14    15   ar
    19    15    16    1
    20    16    17    1
    21    17    18    1
    22    18    19    1
    23     7     8   ar
    24     8     9   ar
    25     9     1   ar
    26     9     4    1
    27    15    11   ar
    28    19    14    1
    29    20    23    1
    30     5    10    1
@<TRIPOS>MOLECULE
*****
 27 30 0 0 0
SMALL
GASTEIGER

@<TRIPOS>ATOM
      1 C         142.7235  139.5664  167.5802 C.ar    1  UNL1        0.0930
      2 C         143.4649  138.2656  167.6704 C.ar    1  UNL1        0.1067
      3 N         143.9433  137.9083  166.2944 N.ar    1  UNL1       -0.2252
      4 C         143.4976  138.9883  165.3537 C.ar    1  UNL1        0.1586
      5 N         143.6809  139.1710  163.8762 N.ar    1  UNL1       -0.3349
      6 C         143.1103  140.3785  163.1934 C.ar    1  UNL1        0.0944
      7 C         142.3564  141.4034  163.9881 C.ar    1  UNL1        0.1171
      8 N         142.1732  141.2206  165.4655 N.ar    1  UNL1       -0.2391
      9 C         142.7438  140.0131  166.1484 C.ar    1  UNL1        0.1210
     10 H         144.1757  138.4984  163.3547 H       1  UNL1        0.1675
     11 C         141.7858  142.6109  163.3052 C.ar    1  UNL1        0.1136
     12 N         142.5385  143.5637  162.4244 N.ar    1  UNL1       -0.2227
     13 C         141.5803  144.6193  161.9580 C.ar    1  UNL1        0.1783
     14 N         140.2354  144.3189  162.5506 N.ar    1  UNL1       -0.3125
     15 C         140.3624  143.0776  163.3831 C.ar    1  UNL1        0.0576
     16 C         139.1656  142.5327  164.1046 C.3     1  UNL1        0.0455
     17 C         137.8416  143.2290  163.9936 C.3     1  UNL1        0.0083
     18 C         137.7146  144.4703  163.1610 C.3     1  UNL1        0.0249
     19 C         138.9114  145.0152  162.4395 C.3     1  UNL1        0.1073
     20 N         140.9287  141.2247  168.4629 N.am    1  UNL1       -0.3039
     21 C         142.0757  140.2931  168.7214 C.2     1  UNL1        0.2488
     22 O         142.5747  140.0882  170.1209 O.2     1  UNL1       -0.2700
     23 H         140.6012  141.3591  167.5443 H       1  UNL1        0.1496
     24 C         141.2392  143.0909  169.4224 C.3     1  UNL1        0.0196
     25 C         140.2808  141.9513  169.6041 C.3     1  UNL1        0.0572
     26 C         139.3225  140.8117  169.7857 C.3     1  UNL1        0.0196
     27 C         139.6330  142.6779  170.7452 C.3     1  UNL1        0.0196
@<TRIPOS>BOND
     1    24    25    1
     2    25    26    1
     3    25    27    1
     4    25    20    1
     5    20    21   am
     6    21    22    2
     7    21     1    1
     8     1     2   ar
     9     2     3   ar
    10     3     4   ar
    11     4     5   ar
    12     5     6   ar
    13     6     7   ar
    14     7    11    1
    15    11    12   ar
    16    12    13   ar
    17    13    14   ar
    18    14    15   ar
    19    15    16    1
    20    16    17    1
    21    17    18    1
    22    18    19    1
    23     7     8   ar
    24     8     9   ar
    25     9     1   ar
    26     9     4    1
    27    15    11   ar
    28    19    14    1
    29    20    23    1
    30     5    10    1
@<TRIPOS>MOLECULE
*****
 27 30 0 0 0
SMALL
GASTEIGER

@<TRIPOS>ATOM
      1 C         143.0116  141.7095  162.1006 C.ar    1  UNL1        0.0930
      2 C         143.6226  140.7437  161.1290 C.ar    1  UNL1        0.1067
      3 N         144.1153  139.5570  161.9029 N.ar    1  UNL1       -0.2252
      4 C         143.8089  139.7894  163.3528 C.ar    1  UNL1        0.1586
      5 N         144.0630  138.9615  164.5775 N.ar    1  UNL1       -0.3349
      6 C         143.6348  139.4639  165.9244 C.ar    1  UNL1        0.0944
      7 C         142.9526  140.7942  166.0466 C.ar    1  UNL1        0.1171
      8 N         142.6986  141.6221  164.8219 N.ar    1  UNL1       -0.2391
      9 C         143.1268  141.1197  163.4750 C.ar    1  UNL1        0.1210
     10 H         144.5107  138.0884  164.4973 H       1  UNL1        0.1675
     11 C         142.5245  141.2966  167.3936 C.ar    1  UNL1        0.1136
     12 N         143.2885  142.2515  168.2622 N.ar    1  UNL1       -0.2227
     13 C         142.4934  142.4774  169.5139 C.ar    1  UNL1        0.1783
     14 N         141.2379  141.6621  169.4189 N.ar    1  UNL1       -0.3125
     15 C         141.2571  140.9323  168.1085 C.ar    1  UNL1        0.0576
     16 C         140.1181  140.0304  167.7356 C.3     1  UNL1        0.0455
     17 C         138.9598  139.8581  168.6730 C.3     1  UNL1        0.0083
     18 C         138.9407  140.5880  169.9834 C.3     1  UNL1        0.0249
     19 C         140.0796  141.4898  170.3563 C.3     1  UNL1        0.1073
     20 N         141.1778  143.5067  162.4975 N.am    1  UNL1       -0.3039
     21 C         142.3939  143.0327  161.7580 C.2     1  UNL1        0.2488
     22 O         142.9920  143.8820  160.6760 O.2     1  UNL1       -0.2700
     23 H         140.7852  142.9493  163.2077 H       1  UNL1        0.1496
     24 C         141.4180  145.4980  163.1883 C.3     1  UNL1        0.0196
     25 C         140.5601  144.8300  162.1549 C.3     1  UNL1        0.0572
     26 C         139.7022  144.1620  161.1215 C.3     1  UNL1        0.0196
     27 C         139.9424  146.1532  161.8123 C.3     1  UNL1        0.0196
@<TRIPOS>BOND
     1    24    25    1
     2    25    26    1
     3    25    27    1
     4    25    20    1
     5    20    21   am
     6    21    22    2
     7    21     1    1
     8     1     2   ar
     9     2     3   ar
    10     3     4   ar
    11     4     5   ar
    12     5     6   ar
    13     6     7   ar
    14     7    11    1
    15    11    12   ar
    16    12    13   ar
    17    13    14   ar
    18    14    15   ar
    19    15    16    1
    20    16    17    1
    21    17    18    1
    22    18    19    1
    23     7     8   ar
    24     8     9   ar
    25     9     1   ar
    26     9     4    1
    27    15    11   ar
    28    19    14    1
    29    20    23    1
    30     5    10    1
