@<TRIPOS>MOLECULE
*****
 28 30 0 0 0
SMALL
GASTEIGER

@<TRIPOS>ATOM
      1 C         138.8984  142.7733  164.8319 C.ar    1  UNL1        0.1578
      2 N         139.7084  143.4172  165.9179 N.ar    1  UNL1       -0.1539
      3 N         140.2173  142.3331  166.8213 N.ar    1  UNL1       -0.2465
      4 C         139.7218  141.0193  166.2936 C.ar    1  UNL1        0.1025
      5 C         138.9068  141.2913  165.0641 C.ar    1  UNL1        0.1051
      6 C         141.0716  142.5286  168.0386 C.3     1  UNL1        0.1488
      7 C         140.4480  142.9694  169.3296 C.3     1  UNL1        0.1674
      8 O         141.3023  143.1649  170.5469 O.3     1  UNL1       -0.3516
      9 C         142.7802  142.9197  170.4733 C.3     1  UNL1        0.1434
     10 C         143.4039  142.4788  169.1822 C.3     1  UNL1        0.0492
     11 C         142.5496  142.2833  167.9649 C.3     1  UNL1        0.1187
     12 C         143.1732  141.8425  166.6739 C.1     1  UNL1        0.0742
     13 N         143.7969  141.4017  165.3828 N.1     1  UNL1       -0.1958
     14 C         138.2205  140.2622  164.2157 C.2     1  UNL1        0.2470
     15 N         138.4675  138.8029  164.4600 N.am    1  UNL1       -0.3252
     16 O         137.2872  140.6921  163.1229 O.2     1  UNL1       -0.2702
     17 H         139.0800  138.5206  165.1772 H       1  UNL1        0.1453
     18 H         138.0170  138.1274  163.9032 H       1  UNL1        0.1453
     19 N         138.2024  143.4861  163.7106 N.pl3   1  UNL1       -0.2964
     20 H         137.2284  143.6255  163.7453 H       1  UNL1        0.1537
     21 C         140.5661  144.9874  160.1880 C.ar    1  UNL1        0.0685
     22 C         140.1996  145.9252  161.2998 C.ar    1  UNL1        0.0115
     23 C         139.4116  145.4248  162.4741 C.ar    1  UNL1        0.0153
     24 C         138.9903  143.9866  162.5364 C.ar    1  UNL1        0.0494
     25 C         139.3568  143.0487  161.4245 C.ar    1  UNL1        0.0153
     26 C         140.1447  143.5492  160.2504 C.ar    1  UNL1        0.0115
     27 N         142.1419  145.9883  157.8396 N.1     1  UNL1       -0.1908
     28 C         141.3540  145.4879  159.0137 C.1     1  UNL1        0.1004
@<TRIPOS>BOND
     1    27    28    3
     2    28    21    1
     3    21    22   ar
     4    22    23   ar
     5    23    24   ar
     6    24    19    1
     7    19     1    1
     8     1     2   ar
     9     2     3   ar
    10     6     3    1
    11     6     7    1
    12     7     8    1
    13     8     9    1
    14     9    10    1
    15    10    11    1
    16    11    12    1
    17    12    13    3
    18     3     4   ar
    19     4     5   ar
    20     5    14    1
    21    14    15   am
    22    14    16    2
    23    24    25   ar
    24    25    26   ar
    25    26    21   ar
    26     5     1   ar
    27    11     6    1
    28    19    20    1
    29    15    17    1
    30    15    18    1
@<TRIPOS>MOLECULE
*****
 28 30 0 0 0
SMALL
GASTEIGER

@<TRIPOS>ATOM
      1 C         138.2482  141.2924  164.5481 C.ar    1  UNL1        0.1578
      2 N         138.7367  140.3244  165.5846 N.ar    1  UNL1       -0.1539
      3 N         139.6022  141.0776  166.5510 N.ar    1  UNL1       -0.2465
      4 C         139.6486  142.5111  166.1117 C.ar    1  UNL1        0.1025
      5 C         138.8118  142.6439  164.8738 C.ar    1  UNL1        0.1051
      6 C         140.2988  140.4989  167.7467 C.3     1  UNL1        0.1488
      7 C         139.5402  140.2747  169.0211 C.3     1  UNL1        0.1674
      8 O         140.2368  139.6960  170.2168 O.3     1  UNL1       -0.3516
      9 C         141.6922  139.3415  170.1381 C.3     1  UNL1        0.1434
     10 C         142.4509  139.5657  168.8637 C.3     1  UNL1        0.0492
     11 C         141.7542  140.1444  167.6680 C.3     1  UNL1        0.1187
     12 C         142.5129  140.3687  166.3936 C.1     1  UNL1        0.0742
     13 N         143.2716  140.5929  165.1192 N.1     1  UNL1       -0.1958
     14 C         138.5794  143.9064  164.0979 C.2     1  UNL1        0.2470
     15 N         139.4300  145.1142  164.3584 N.am    1  UNL1       -0.3252
     16 O         137.4965  143.9612  163.0615 O.2     1  UNL1       -0.2702
     17 H         140.1408  145.0782  165.0387 H       1  UNL1        0.1453
     18 H         139.2774  145.9428  163.8492 H       1  UNL1        0.1453
     19 N         137.3534  140.9663  163.3893 N.pl3   1  UNL1       -0.2964
     20 H         136.3913  141.1696  163.4378 H       1  UNL1        0.1537
     21 C         139.0663  139.0587  159.6911 C.ar    1  UNL1        0.0685
     22 C         138.8754  138.2435  160.9357 C.ar    1  UNL1        0.0115
     23 C         138.3044  138.8794  162.1685 C.ar    1  UNL1        0.0153
     24 C         137.9244  140.3304  162.1566 C.ar    1  UNL1        0.0494
     25 C         138.1153  141.1456  160.9119 C.ar    1  UNL1        0.0153
     26 C         138.6863  140.5097  159.6792 C.ar    1  UNL1        0.0115
     27 N         140.2082  137.7870  157.2255 N.1     1  UNL1       -0.1908
     28 C         139.6373  138.4228  158.4583 C.1     1  UNL1        0.1004
@<TRIPOS>BOND
     1    27    28    3
     2    28    21    1
     3    21    22   ar
     4    22    23   ar
     5    23    24   ar
     6    24    19    1
     7    19     1    1
     8     1     2   ar
     9     2     3   ar
    10     6     3    1
    11     6     7    1
    12     7     8    1
    13     8     9    1
    14     9    10    1
    15    10    11    1
    16    11    12    1
    17    12    13    3
    18     3     4   ar
    19     4     5   ar
    20     5    14    1
    21    14    15   am
    22    14    16    2
    23    24    25   ar
    24    25    26   ar
    25    26    21   ar
    26     5     1   ar
    27    11     6    1
    28    19    20    1
    29    15    17    1
    30    15    18    1
@<TRIPOS>MOLECULE
*****
 28 30 0 0 0
SMALL
GASTEIGER

@<TRIPOS>ATOM
      1 C         138.6701  140.3689  165.8665 C.ar    1  UNL1        0.1578
      2 N         139.5519  141.4477  166.4222 N.ar    1  UNL1       -0.1539
      3 N         140.0233  141.0091  167.7771 N.ar    1  UNL1       -0.2465
      4 C         139.4327  139.6592  168.0587 C.ar    1  UNL1        0.1025
      5 C         138.5965  139.2636  166.8780 C.ar    1  UNL1        0.1051
      6 C         140.9265  141.7842  168.6900 C.3     1  UNL1        0.1488
      7 C         140.4458  143.0606  169.3140 C.3     1  UNL1        0.1674
      8 O         141.3490  143.8357  170.2269 O.3     1  UNL1       -0.3516
      9 C         142.7329  143.3344  170.5157 C.3     1  UNL1        0.1434
     10 C         143.2136  142.0579  169.8916 C.3     1  UNL1        0.0492
     11 C         142.3104  141.2828  168.9787 C.3     1  UNL1        0.1187
     12 C         142.7911  140.0063  168.3546 C.1     1  UNL1        0.0742
     13 N         143.2718  138.7298  167.7305 N.1     1  UNL1       -0.1958
     14 C         137.8224  137.9869  166.7338 C.2     1  UNL1        0.2470
     15 N         136.7919  137.6149  167.7584 N.am    1  UNL1       -0.3252
     16 O         138.0789  137.0821  165.5653 O.2     1  UNL1       -0.2702
     17 H         136.6235  138.2087  168.5254 H       1  UNL1        0.1453
     18 H         136.2838  136.7769  167.6638 H       1  UNL1        0.1453
     19 N         137.9827  140.3915  164.5335 N.pl3   1  UNL1       -0.2964
     20 H         137.2249  139.7874  164.3601 H       1  UNL1        0.1537
     21 C         139.3844  143.2203  161.3268 C.ar    1  UNL1        0.0685
     22 C         140.1721  141.9803  161.6296 C.ar    1  UNL1        0.0115
     23 C         139.7049  141.0373  162.6985 C.ar    1  UNL1        0.0153
     24 C         138.4500  141.3344  163.4646 C.ar    1  UNL1        0.0494
     25 C         137.6623  142.5745  163.1618 C.ar    1  UNL1        0.0153
     26 C         138.1295  143.5175  162.0929 C.ar    1  UNL1        0.0115
     27 N         140.3188  145.1063  159.1891 N.1     1  UNL1       -0.1908
     28 C         139.8516  144.1633  160.2579 C.1     1  UNL1        0.1004
@<TRIPOS>BOND
     1    27    28    3
     2    28    21    1
     3    21    22   ar
     4    22    23   ar
     5    23    24   ar
     6    24    19    1
     7    19     1    1
     8     1     2   ar
     9     2     3   ar
    10     6     3    1
    11     6     7    1
    12     7     8    1
    13     8     9    1
    14     9    10    1
    15    10    11    1
    16    11    12    1
    17    12    13    3
    18     3     4   ar
    19     4     5   ar
    20     5    14    1
    21    14    15   am
    22    14    16    2
    23    24    25   ar
    24    25    26   ar
    25    26    21   ar
    26     5     1   ar
    27    11     6    1
    28    19    20    1
    29    15    17    1
    30    15    18    1
@<TRIPOS>MOLECULE
*****
 28 30 0 0 0
SMALL
GASTEIGER

@<TRIPOS>ATOM
      1 C         140.8882  139.9572  163.7628 C.ar    1  UNL1        0.1578
      2 N         140.9127  141.4570  163.7674 N.ar    1  UNL1       -0.1539
      3 N         140.2372  141.9355  162.5164 N.ar    1  UNL1       -0.2465
      4 C         139.7952  140.7313  161.7388 C.ar    1  UNL1        0.1025
      5 C         140.1975  139.5087  162.5091 C.ar    1  UNL1        0.1051
      6 C         140.0385  143.3667  162.1138 C.3     1  UNL1        0.1488
      7 C         138.7823  144.0879  162.5031 C.3     1  UNL1        0.1674
      8 O         138.5836  145.5191  162.1006 O.3     1  UNL1       -0.3516
      9 C         139.6412  146.2292  161.3087 C.3     1  UNL1        0.1434
     10 C         140.8976  145.5080  160.9194 C.3     1  UNL1        0.0492
     11 C         141.0962  144.0767  161.3219 C.3     1  UNL1        0.1187
     12 C         142.3525  143.3556  160.9326 C.1     1  UNL1        0.0742
     13 N         143.6089  142.6344  160.5433 N.1     1  UNL1       -0.1958
     14 C         139.9523  138.0872  162.0979 C.2     1  UNL1        0.2470
     15 N         138.6785  137.7183  161.3969 N.am    1  UNL1       -0.3252
     16 O         140.9808  137.0345  162.3877 O.2     1  UNL1       -0.2702
     17 H         138.0034  138.4092  161.2067 H       1  UNL1        0.1453
     18 H         138.5175  136.7853  161.1270 H       1  UNL1        0.1453
     19 N         141.4549  139.0629  164.8254 N.pl3   1  UNL1       -0.2964
     20 H         141.9314  138.2392  164.5730 H       1  UNL1        0.1537
     21 C         140.9768  140.1450  169.1671 C.ar    1  UNL1        0.0685
     22 C         142.3295  139.7842  168.6287 C.ar    1  UNL1        0.0115
     23 C         142.4889  139.4234  167.1814 C.ar    1  UNL1        0.0153
     24 C         141.2955  139.4236  166.2726 C.ar    1  UNL1        0.0494
     25 C         139.9428  139.7845  166.8111 C.ar    1  UNL1        0.0153
     26 C         139.7834  140.1452  168.2583 C.ar    1  UNL1        0.0115
     27 N         140.6579  140.8665  172.0616 N.1     1  UNL1       -0.1908
     28 C         140.8173  140.5058  170.6144 C.1     1  UNL1        0.1004
@<TRIPOS>BOND
     1    27    28    3
     2    28    21    1
     3    21    22   ar
     4    22    23   ar
     5    23    24   ar
     6    24    19    1
     7    19     1    1
     8     1     2   ar
     9     2     3   ar
    10     6     3    1
    11     6     7    1
    12     7     8    1
    13     8     9    1
    14     9    10    1
    15    10    11    1
    16    11    12    1
    17    12    13    3
    18     3     4   ar
    19     4     5   ar
    20     5    14    1
    21    14    15   am
    22    14    16    2
    23    24    25   ar
    24    25    26   ar
    25    26    21   ar
    26     5     1   ar
    27    11     6    1
    28    19    20    1
    29    15    17    1
    30    15    18    1
@<TRIPOS>MOLECULE
*****
 28 30 0 0 0
SMALL
GASTEIGER

@<TRIPOS>ATOM
      1 C         139.0802  140.2523  165.4084 C.ar    1  UNL1        0.1578
      2 N         139.5202  141.2602  166.4285 N.ar    1  UNL1       -0.1539
      3 N         140.7548  140.7334  167.0982 N.ar    1  UNL1       -0.2465
      4 C         141.0777  139.3999  166.4919 C.ar    1  UNL1        0.1025
      5 C         140.0428  139.1026  165.4476 C.ar    1  UNL1        0.1051
      6 C         141.5302  141.4195  168.1835 C.3     1  UNL1        0.1488
      7 C         142.8279  142.0998  167.8628 C.3     1  UNL1        0.1674
      8 O         143.6033  142.7860  168.9481 O.3     1  UNL1       -0.3516
      9 C         143.0810  142.7918  170.3541 C.3     1  UNL1        0.1434
     10 C         141.7832  142.1114  170.6749 C.3     1  UNL1        0.0492
     11 C         141.0078  141.4252  169.5896 C.3     1  UNL1        0.1187
     12 C         139.7100  140.7449  169.9103 C.1     1  UNL1        0.0742
     13 N         138.4122  140.0645  170.2311 N.1     1  UNL1       -0.1958
     14 C         139.9813  137.8717  164.5925 C.2     1  UNL1        0.2470
     15 N         141.2220  137.0645  164.3495 N.am    1  UNL1       -0.3252
     16 O         138.6791  137.4480  163.9804 O.2     1  UNL1       -0.2702
     17 H         142.0767  137.3426  164.7512 H       1  UNL1        0.1453
     18 H         141.1816  136.2566  163.7883 H       1  UNL1        0.1453
     19 N         137.8871  140.3730  164.5073 N.pl3   1  UNL1       -0.2964
     20 H         136.9988  140.0935  164.8267 H       1  UNL1        0.1537
     21 C         138.3682  142.0126  160.3444 C.ar    1  UNL1        0.0685
     22 C         138.5703  142.9077  161.5309 C.ar    1  UNL1        0.0115
     23 C         138.4099  142.3611  162.9186 C.ar    1  UNL1        0.0153
     24 C         138.0475  140.9195  163.1197 C.ar    1  UNL1        0.0494
     25 C         137.8455  140.0244  161.9331 C.ar    1  UNL1        0.0153
     26 C         138.0059  140.5710  160.5454 C.ar    1  UNL1        0.0115
     27 N         138.6890  143.1055  157.5690 N.1     1  UNL1       -0.1908
     28 C         138.5286  142.5591  158.9567 C.1     1  UNL1        0.1004
@<TRIPOS>BOND
     1    27    28    3
     2    28    21    1
     3    21    22   ar
     4    22    23   ar
     5    23    24   ar
     6    24    19    1
     7    19     1    1
     8     1     2   ar
     9     2     3   ar
    10     6     3    1
    11     6     7    1
    12     7     8    1
    13     8     9    1
    14     9    10    1
    15    10    11    1
    16    11    12    1
    17    12    13    3
    18     3     4   ar
    19     4     5   ar
    20     5    14    1
    21    14    15   am
    22    14    16    2
    23    24    25   ar
    24    25    26   ar
    25    26    21   ar
    26     5     1   ar
    27    11     6    1
    28    19    20    1
    29    15    17    1
    30    15    18    1
@<TRIPOS>MOLECULE
*****
 28 30 0 0 0
SMALL
GASTEIGER

@<TRIPOS>ATOM
      1 C         140.7592  139.9351  164.1339 C.ar    1  UNL1        0.1578
      2 N         141.2596  141.2660  163.6561 N.ar    1  UNL1       -0.1539
      3 N         140.4845  141.6386  162.4270 N.ar    1  UNL1       -0.2465
      4 C         139.5052  140.5378  162.1451 C.ar    1  UNL1        0.1025
      5 C         139.6750  139.4851  163.2000 C.ar    1  UNL1        0.1051
      6 C         140.6583  142.8918  161.6212 C.3     1  UNL1        0.1488
      7 C         141.5829  142.9018  160.4401 C.3     1  UNL1        0.1674
      8 O         141.7566  144.1550  159.6343 O.3     1  UNL1       -0.3516
      9 C         141.0059  145.3981  160.0096 C.3     1  UNL1        0.1434
     10 C         140.0813  145.3881  161.1908 C.3     1  UNL1        0.0492
     11 C         139.9075  144.1349  161.9965 C.3     1  UNL1        0.1187
     12 C         138.9829  144.1249  163.1777 C.1     1  UNL1        0.0742
     13 N         138.0583  144.1148  164.3588 N.1     1  UNL1       -0.1958
     14 C         138.8971  138.2067  163.3031 C.2     1  UNL1        0.2470
     15 N         138.2333  137.6325  162.0867 N.am    1  UNL1       -0.3252
     16 O         138.7831  137.5024  164.6226 O.2     1  UNL1       -0.2702
     17 H         138.3081  138.0947  161.2207 H       1  UNL1        0.1453
     18 H         137.7227  136.7935  162.1544 H       1  UNL1        0.1453
     19 N         141.2559  139.1858  165.3346 N.pl3   1  UNL1       -0.2964
     20 H         141.6801  138.3043  165.2240 H       1  UNL1        0.1537
     21 C         140.8067  140.9669  169.4426 C.ar    1  UNL1        0.0685
     22 C         139.5985  140.4752  168.7022 C.ar    1  UNL1        0.0115
     23 C         139.7482  139.8815  167.3328 C.ar    1  UNL1        0.0153
     24 C         141.1061  139.7795  166.7039 C.ar    1  UNL1        0.0494
     25 C         142.3144  140.2713  167.4444 C.ar    1  UNL1        0.0153
     26 C         142.1647  140.8650  168.8137 C.ar    1  UNL1        0.0115
     27 N         140.5073  142.1545  172.1813 N.1     1  UNL1       -0.1908
     28 C         140.6570  141.5607  170.8120 C.1     1  UNL1        0.1004
@<TRIPOS>BOND
     1    27    28    3
     2    28    21    1
     3    21    22   ar
     4    22    23   ar
     5    23    24   ar
     6    24    19    1
     7    19     1    1
     8     1     2   ar
     9     2     3   ar
    10     6     3    1
    11     6     7    1
    12     7     8    1
    13     8     9    1
    14     9    10    1
    15    10    11    1
    16    11    12    1
    17    12    13    3
    18     3     4   ar
    19     4     5   ar
    20     5    14    1
    21    14    15   am
    22    14    16    2
    23    24    25   ar
    24    25    26   ar
    25    26    21   ar
    26     5     1   ar
    27    11     6    1
    28    19    20    1
    29    15    17    1
    30    15    18    1
@<TRIPOS>MOLECULE
*****
 28 30 0 0 0
SMALL
GASTEIGER

@<TRIPOS>ATOM
      1 C         138.3907  141.2741  163.7151 C.ar    1  UNL1        0.1578
      2 N         138.9939  141.5465  165.0612 N.ar    1  UNL1       -0.1539
      3 N         139.4549  140.2396  165.6356 N.ar    1  UNL1       -0.2465
      4 C         139.1366  139.1596  164.6445 C.ar    1  UNL1        0.1025
      5 C         138.4789  139.7989  163.4576 C.ar    1  UNL1        0.1051
      6 C         140.1178  140.0468  166.9673 C.3     1  UNL1        0.1488
      7 C         139.2856  139.9351  168.2102 C.3     1  UNL1        0.1674
      8 O         139.9485  139.7422  169.5418 O.3     1  UNL1       -0.3516
      9 C         141.4436  139.6610  169.6306 C.3     1  UNL1        0.1434
     10 C         142.2759  139.7726  168.3877 C.3     1  UNL1        0.0492
     11 C         141.6130  139.9655  167.0560 C.3     1  UNL1        0.1187
     12 C         142.4452  140.0772  165.8131 C.1     1  UNL1        0.0742
     13 N         143.2775  140.1888  164.5701 N.1     1  UNL1       -0.1958
     14 C         137.9944  139.0880  162.2289 C.2     1  UNL1        0.2470
     15 N         138.2798  137.6267  162.0462 N.am    1  UNL1       -0.3252
     16 O         137.2245  139.8382  161.1827 O.2     1  UNL1       -0.2702
     17 H         138.7850  137.1343  162.7328 H       1  UNL1        0.1453
     18 H         137.9618  137.1601  161.2398 H       1  UNL1        0.1453
     19 N         137.8026  142.2971  162.7892 N.pl3   1  UNL1       -0.2964
     20 H         136.8348  142.4770  162.8051 H       1  UNL1        0.1537
     21 C         140.4620  144.5442  159.9382 C.ar    1  UNL1        0.0685
     22 C         140.4011  144.9462  161.3820 C.ar    1  UNL1        0.0115
     23 C         139.5146  144.1972  162.3324 C.ar    1  UNL1        0.0153
     24 C         138.6891  143.0462  161.8389 C.ar    1  UNL1        0.0494
     25 C         138.7500  142.6441  160.3950 C.ar    1  UNL1        0.0153
     26 C         139.6365  143.3932  159.4447 C.ar    1  UNL1        0.0115
     27 N         142.2349  146.0423  158.0374 N.1     1  UNL1       -0.1908
     28 C         141.3485  145.2933  158.9878 C.1     1  UNL1        0.1004
@<TRIPOS>BOND
     1    27    28    3
     2    28    21    1
     3    21    22   ar
     4    22    23   ar
     5    23    24   ar
     6    24    19    1
     7    19     1    1
     8     1     2   ar
     9     2     3   ar
    10     6     3    1
    11     6     7    1
    12     7     8    1
    13     8     9    1
    14     9    10    1
    15    10    11    1
    16    11    12    1
    17    12    13    3
    18     3     4   ar
    19     4     5   ar
    20     5    14    1
    21    14    15   am
    22    14    16    2
    23    24    25   ar
    24    25    26   ar
    25    26    21   ar
    26     5     1   ar
    27    11     6    1
    28    19    20    1
    29    15    17    1
    30    15    18    1
@<TRIPOS>MOLECULE
*****
 28 30 0 0 0
SMALL
GASTEIGER

@<TRIPOS>ATOM
      1 C         143.3809  142.5717  164.8169 C.ar    1  UNL1        0.1578
      2 N         142.3849  142.6419  165.9363 N.ar    1  UNL1       -0.1539
      3 N         142.3074  141.2860  166.5735 N.ar    1  UNL1       -0.2465
      4 C         143.2555  140.3779  165.8479 C.ar    1  UNL1        0.1025
      5 C         143.9190  141.1725  164.7623 C.ar    1  UNL1        0.1051
      6 C         141.4349  140.9052  167.7328 C.3     1  UNL1        0.1488
      7 C         140.1655  140.1419  167.4970 C.3     1  UNL1        0.1674
      8 O         139.2930  139.7611  168.6563 O.3     1  UNL1       -0.3516
      9 C         139.6901  140.1437  170.0512 C.3     1  UNL1        0.1434
     10 C         140.9596  140.9070  170.2869 C.3     1  UNL1        0.0492
     11 C         141.8320  141.2878  169.1277 C.3     1  UNL1        0.1187
     12 C         143.1016  142.0512  169.3634 C.1     1  UNL1        0.0742
     13 N         144.3711  142.8146  169.5992 N.1     1  UNL1       -0.1958
     14 C         144.9410  140.6582  163.7923 C.2     1  UNL1        0.2470
     15 N         144.9130  139.2205  163.3652 N.am    1  UNL1       -0.3252
     16 O         145.9910  141.5815  163.2493 O.2     1  UNL1       -0.2702
     17 H         144.2238  138.6145  163.7215 H       1  UNL1        0.1453
     18 H         145.5838  138.8830  162.7285 H       1  UNL1        0.1453
     19 N         143.7705  143.7021  163.9112 N.pl3   1  UNL1       -0.2964
     20 H         144.5322  144.2803  164.1453 H       1  UNL1        0.1537
     21 C         141.4580  144.4503  160.1241 C.ar    1  UNL1        0.0685
     22 C         142.6597  143.5529  160.1041 C.ar    1  UNL1        0.0115
     23 C         143.4306  143.3035  161.3665 C.ar    1  UNL1        0.0153
     24 C         142.9997  143.9515  162.6489 C.ar    1  UNL1        0.0494
     25 C         141.7979  144.8489  162.6688 C.ar    1  UNL1        0.0153
     26 C         141.0270  145.0983  161.4065 C.ar    1  UNL1        0.0115
     27 N         139.9162  144.9492  157.5994 N.1     1  UNL1       -0.1908
     28 C         140.6871  144.6997  158.8618 C.1     1  UNL1        0.1004
@<TRIPOS>BOND
     1    27    28    3
     2    28    21    1
     3    21    22   ar
     4    22    23   ar
     5    23    24   ar
     6    24    19    1
     7    19     1    1
     8     1     2   ar
     9     2     3   ar
    10     6     3    1
    11     6     7    1
    12     7     8    1
    13     8     9    1
    14     9    10    1
    15    10    11    1
    16    11    12    1
    17    12    13    3
    18     3     4   ar
    19     4     5   ar
    20     5    14    1
    21    14    15   am
    22    14    16    2
    23    24    25   ar
    24    25    26   ar
    25    26    21   ar
    26     5     1   ar
    27    11     6    1
    28    19    20    1
    29    15    17    1
    30    15    18    1
@<TRIPOS>MOLECULE
*****
 28 30 0 0 0
SMALL
GASTEIGER

@<TRIPOS>ATOM
      1 C         139.8077  143.4601  165.0080 C.ar    1  UNL1        0.1578
      2 N         140.6895  142.9825  166.1236 N.ar    1  UNL1       -0.1539
      3 N         140.2056  141.6280  166.5495 N.ar    1  UNL1       -0.2465
      4 C         139.0248  141.2684  165.6971 C.ar    1  UNL1        0.1025
      5 C         138.7789  142.4007  164.7444 C.ar    1  UNL1        0.1051
      6 C         140.7985  140.7817  167.6367 C.3     1  UNL1        0.1488
      7 C         140.0020  140.4808  168.8716 C.3     1  UNL1        0.1674
      8 O         140.5948  139.6345  169.9588 O.3     1  UNL1       -0.3516
      9 C         141.9843  139.0890  169.8113 C.3     1  UNL1        0.1434
     10 C         142.7809  139.3899  168.5764 C.3     1  UNL1        0.0492
     11 C         142.1880  140.2362  167.4892 C.3     1  UNL1        0.1187
     12 C         142.9846  140.5370  166.2543 C.1     1  UNL1        0.0742
     13 N         143.7812  140.8379  165.0194 N.1     1  UNL1       -0.1958
     14 C         137.6946  142.4628  163.7099 C.2     1  UNL1        0.2470
     15 N         136.9629  141.2144  163.3144 N.am    1  UNL1       -0.3252
     16 O         137.3419  143.7731  163.0707 O.2     1  UNL1       -0.2702
     17 H         137.1944  140.3544  163.7338 H       1  UNL1        0.1453
     18 H         136.2513  141.2552  162.6353 H       1  UNL1        0.1453
     19 N         139.9327  144.7674  164.2833 N.pl3   1  UNL1       -0.2964
     20 H         139.7102  145.6087  164.7437 H       1  UNL1        0.1537
     21 C         141.3247  144.8440  160.0047 C.ar    1  UNL1        0.0685
     22 C         141.8669  143.8146  160.9515 C.ar    1  UNL1        0.0115
     23 C         141.4029  143.7891  162.3777 C.ar    1  UNL1        0.0153
     24 C         140.3967  144.7929  162.8572 C.ar    1  UNL1        0.0494
     25 C         139.8545  145.8223  161.9103 C.ar    1  UNL1        0.0153
     26 C         140.3185  145.8478  160.4841 C.ar    1  UNL1        0.0115
     27 N         142.2527  144.8951  157.1523 N.1     1  UNL1       -0.1908
     28 C         141.7887  144.8695  158.5785 C.1     1  UNL1        0.1004
@<TRIPOS>BOND
     1    27    28    3
     2    28    21    1
     3    21    22   ar
     4    22    23   ar
     5    23    24   ar
     6    24    19    1
     7    19     1    1
     8     1     2   ar
     9     2     3   ar
    10     6     3    1
    11     6     7    1
    12     7     8    1
    13     8     9    1
    14     9    10    1
    15    10    11    1
    16    11    12    1
    17    12    13    3
    18     3     4   ar
    19     4     5   ar
    20     5    14    1
    21    14    15   am
    22    14    16    2
    23    24    25   ar
    24    25    26   ar
    25    26    21   ar
    26     5     1   ar
    27    11     6    1
    28    19    20    1
    29    15    17    1
    30    15    18    1
