@<TRIPOS>MOLECULE
*****
 37 41 0 0 0
SMALL
GASTEIGER

@<TRIPOS>ATOM
      1 C         140.2833  139.7579  164.0470 C.2     1  UNL1        0.1397
      2 C         139.9470  139.8997  162.5921 C.2     1  UNL1        0.1355
      3 N         139.8655  141.2624  161.9705 N.pl3   1  UNL1       -0.1998
      4 C         140.1202  142.4833  162.8039 C.2     1  UNL1        0.3442
      5 N         140.4565  142.3415  164.2587 N.2     1  UNL1       -0.0580
      6 C         140.5381  140.9788  164.8803 C.3     1  UNL1        0.2687
      7 H         139.6447  141.3555  161.0156 H       1  UNL1        0.2983
      8 C         140.8744  140.8370  166.3353 C.ar    1  UNL1        0.0309
      9 C         139.7789  140.6588  167.3443 C.ar    1  UNL1        0.0025
     10 C         140.1152  140.5170  168.7992 C.ar    1  UNL1        0.0295
     11 C         141.5470  140.5534  169.2452 C.ar    1  UNL1        0.1401
     12 F         141.8832  140.4116  170.7001 F       1  UNL1       -0.2042
     13 C         142.6424  140.7316  168.2361 C.ar    1  UNL1        0.0295
     14 C         142.3061  140.8734  166.7811 C.ar    1  UNL1        0.0026
     15 C         143.4016  141.0516  165.7721 C.ar    1  UNL1       -0.0001
     16 C         144.0158  139.8527  165.1122 C.ar    1  UNL1       -0.0000
     17 C         145.1112  140.0309  164.1031 C.ar    1  UNL1       -0.0000
     18 C         145.5925  141.4081  163.7539 C.ar    1  UNL1       -0.0000
     19 C         144.9783  142.6069  164.4138 C.ar    1  UNL1       -0.0000
     20 C         143.8828  142.4287  165.4228 C.ar    1  UNL1       -0.0000
     21 C         140.0387  143.8460  162.1823 C.ar    1  UNL1        0.1931
     22 N         140.3773  144.1889  160.7618 N.ar    1  UNL1       -0.2297
     23 C         140.1521  145.6599  160.5737 C.ar    1  UNL1        0.1067
     24 C         139.6742  146.2262  161.8779 C.ar    1  UNL1        0.0577
     25 S         139.6041  145.1052  162.8720 S.2     1  UNL1       -0.0586
     26 C         140.3649  138.3951  164.6686 C.2     1  UNL1        0.3447
     27 O         141.6976  137.7298  164.8450 O.2     1  UNL1       -0.2450
     28 O         139.1137  137.6978  165.1137 O.3     1  UNL1       -0.4455
     29 C         137.3876  137.7260  167.0554 C.3     1  UNL1        0.0513
     30 C         138.0991  138.4319  165.9392 C.3     1  UNL1        0.2089
     31 C         139.6922  138.6788  161.7587 C.3     1  UNL1        0.1405
     32 N         140.5591  138.3881  160.5696 N.3     1  UNL1       -0.2617
     33 C         141.9945  137.9988  160.7651 C.3     1  UNL1        0.1050
     34 C         142.8614  137.7081  159.5759 C.3     1  UNL1        0.1595
     35 O         142.2929  137.8067  158.1914 O.3     1  UNL1       -0.3508
     36 C         140.8576  138.1959  157.9959 C.3     1  UNL1        0.1595
     37 C         139.9907  138.4866  159.1850 C.3     1  UNL1        0.1050
@<TRIPOS>BOND
     1    29    30    1
     2    30    28    1
     3    28    26    1
     4    26    27    2
     5    26     1    1
     6     1     2    2
     7     2    31    1
     8    31    32    1
     9    32    33    1
    10    33    34    1
    11    34    35    1
    12    35    36    1
    13    36    37    1
    14     2     3    1
    15     3     4    1
    16     4    21    1
    17    21    22   ar
    18    22    23   ar
    19    23    24   ar
    20    24    25   ar
    21     4     5    2
    22     5     6    1
    23     6     8    1
    24     8     9   ar
    25     9    10   ar
    26    10    11   ar
    27    11    12    1
    28    11    13   ar
    29    13    14   ar
    30    14    15    1
    31    15    16   ar
    32    16    17   ar
    33    17    18   ar
    34    18    19   ar
    35    19    20   ar
    36     6     1    1
    37    14     8   ar
    38    20    15   ar
    39    37    32    1
    40    25    21   ar
    41     3     7    1
@<TRIPOS>MOLECULE
*****
 37 41 0 0 0
SMALL
GASTEIGER

@<TRIPOS>ATOM
      1 C         141.2077  140.0616  162.4744 C.2     1  UNL1        0.1397
      2 C         141.8087  140.6277  161.2221 C.2     1  UNL1        0.1355
      3 N         140.9262  140.9942  160.0659 N.pl3   1  UNL1       -0.1998
      4 C         139.4427  140.7946  160.1619 C.2     1  UNL1        0.3442
      5 N         138.8417  140.2284  161.4142 N.2     1  UNL1       -0.0580
      6 C         139.7242  139.8619  162.5704 C.3     1  UNL1        0.2687
      7 H         141.3208  141.3658  159.2440 H       1  UNL1        0.2983
      8 C         139.1231  139.2958  163.8227 C.ar    1  UNL1        0.0309
      9 C         139.0670  137.8102  164.0225 C.ar    1  UNL1        0.0025
     10 C         138.4659  137.2440  165.2747 C.ar    1  UNL1        0.0295
     11 C         137.9209  138.1634  166.3272 C.ar    1  UNL1        0.1401
     12 F         137.3198  137.5972  167.5795 F       1  UNL1       -0.2042
     13 C         137.9770  139.6490  166.1274 C.ar    1  UNL1        0.0295
     14 C         138.5781  140.2151  164.8751 C.ar    1  UNL1        0.0026
     15 C         138.6342  141.7007  164.6754 C.ar    1  UNL1       -0.0001
     16 C         137.5937  142.3848  163.8389 C.ar    1  UNL1       -0.0000
     17 C         137.6498  143.8704  163.6391 C.ar    1  UNL1       -0.0000
     18 C         138.7464  144.6719  164.2758 C.ar    1  UNL1       -0.0000
     19 C         139.7867  143.9878  165.1122 C.ar    1  UNL1       -0.0000
     20 C         139.7306  142.5022  165.3119 C.ar    1  UNL1       -0.0000
     21 C         138.5602  141.1611  159.0057 C.ar    1  UNL1        0.1931
     22 N         137.6248  140.2376  158.2831 N.ar    1  UNL1       -0.2297
     23 C         136.9447  141.0212  157.1998 C.ar    1  UNL1        0.1067
     24 C         137.4598  142.4289  157.2529 C.ar    1  UNL1        0.0577
     25 S         138.4583  142.5154  158.3689 S.2     1  UNL1       -0.0586
     26 C         142.0902  139.6951  163.6306 C.2     1  UNL1        0.3447
     27 O         142.7687  138.3577  163.6619 O.2     1  UNL1       -0.2450
     28 O         142.2942  140.6659  164.7557 O.3     1  UNL1       -0.4455
     29 C         141.6128  139.5850  167.0178 C.3     1  UNL1        0.0513
     30 C         142.6651  140.1655  166.1202 C.3     1  UNL1        0.2089
     31 C         143.2923  140.8274  161.1261 C.3     1  UNL1        0.1405
     32 N         144.0174  141.5888  162.1958 N.3     1  UNL1       -0.2617
     33 C         145.1772  140.9596  162.9092 C.3     1  UNL1        0.1050
     34 C         145.9024  141.7212  163.9790 C.3     1  UNL1        0.1595
     35 O         145.4676  143.1118  164.3353 O.3     1  UNL1       -0.3508
     36 C         144.3078  143.7410  163.6219 C.3     1  UNL1        0.1595
     37 C         143.5827  142.9796  162.5522 C.3     1  UNL1        0.1050
@<TRIPOS>BOND
     1    29    30    1
     2    30    28    1
     3    28    26    1
     4    26    27    2
     5    26     1    1
     6     1     2    2
     7     2    31    1
     8    31    32    1
     9    32    33    1
    10    33    34    1
    11    34    35    1
    12    35    36    1
    13    36    37    1
    14     2     3    1
    15     3     4    1
    16     4    21    1
    17    21    22   ar
    18    22    23   ar
    19    23    24   ar
    20    24    25   ar
    21     4     5    2
    22     5     6    1
    23     6     8    1
    24     8     9   ar
    25     9    10   ar
    26    10    11   ar
    27    11    12    1
    28    11    13   ar
    29    13    14   ar
    30    14    15    1
    31    15    16   ar
    32    16    17   ar
    33    17    18   ar
    34    18    19   ar
    35    19    20   ar
    36     6     1    1
    37    14     8   ar
    38    20    15   ar
    39    37    32    1
    40    25    21   ar
    41     3     7    1
@<TRIPOS>MOLECULE
*****
 37 41 0 0 0
SMALL
GASTEIGER

@<TRIPOS>ATOM
      1 C         139.6397  139.8305  164.5137 C.2     1  UNL1        0.1397
      2 C         139.1632  140.1461  163.1269 C.2     1  UNL1        0.1355
      3 N         139.2377  141.5523  162.6100 N.pl3   1  UNL1       -0.1998
      4 C         139.7888  142.6429  163.4799 C.2     1  UNL1        0.3442
      5 N         140.2653  142.3273  164.8668 N.2     1  UNL1       -0.0580
      6 C         140.1908  140.9211  165.3836 C.3     1  UNL1        0.2687
      7 H         138.9249  141.7594  161.6998 H       1  UNL1        0.2983
      8 C         140.6673  140.6056  166.7705 C.ar    1  UNL1        0.0309
      9 C         139.6747  140.4028  167.8766 C.ar    1  UNL1        0.0025
     10 C         140.1512  140.0873  169.2635 C.ar    1  UNL1        0.0295
     11 C         141.6204  139.9745  169.5442 C.ar    1  UNL1        0.1401
     12 F         142.0969  139.6590  170.9311 F       1  UNL1       -0.2042
     13 C         142.6131  140.1773  168.4381 C.ar    1  UNL1        0.0295
     14 C         142.1365  140.4929  167.0512 C.ar    1  UNL1        0.0026
     15 C         143.1292  140.6957  165.9451 C.ar    1  UNL1       -0.0001
     16 C         143.5835  142.0804  165.5896 C.ar    1  UNL1       -0.0000
     17 C         144.5762  142.2831  164.4835 C.ar    1  UNL1       -0.0000
     18 C         145.1145  141.1012  163.7328 C.ar    1  UNL1       -0.0000
     19 C         144.6601  139.7166  164.0883 C.ar    1  UNL1       -0.0000
     20 C         143.6674  139.5139  165.1944 C.ar    1  UNL1       -0.0000
     21 C         139.8633  144.0490  162.9631 C.ar    1  UNL1        0.1931
     22 N         138.8319  144.7326  162.1152 N.ar    1  UNL1       -0.2297
     23 C         139.3135  146.1246  161.8315 C.ar    1  UNL1        0.1067
     24 C         140.6426  146.3013  162.5040 C.ar    1  UNL1        0.0577
     25 S         140.9824  145.0185  163.2033 S.2     1  UNL1       -0.0586
     26 C         139.5652  138.4244  165.0305 C.2     1  UNL1        0.3447
     27 O         138.2913  137.9146  165.6366 O.2     1  UNL1       -0.2450
     28 O         140.7645  137.5280  164.9413 O.3     1  UNL1       -0.4455
     29 C         141.9604  137.6726  162.6394 C.3     1  UNL1        0.0513
     30 C         141.1378  136.9029  163.6299 C.3     1  UNL1        0.2089
     31 C         138.6121  139.0555  162.2568 C.3     1  UNL1        0.1405
     32 N         138.6586  139.1915  160.7638 N.3     1  UNL1       -0.2617
     33 C         137.7154  140.1262  160.0661 C.3     1  UNL1        0.1050
     34 C         137.7619  140.2623  158.5729 C.3     1  UNL1        0.1595
     35 O         138.7515  139.4636  157.7775 O.3     1  UNL1       -0.3508
     36 C         139.6947  138.5288  158.4752 C.3     1  UNL1        0.1595
     37 C         139.6482  138.3928  159.9683 C.3     1  UNL1        0.1050
@<TRIPOS>BOND
     1    29    30    1
     2    30    28    1
     3    28    26    1
     4    26    27    2
     5    26     1    1
     6     1     2    2
     7     2    31    1
     8    31    32    1
     9    32    33    1
    10    33    34    1
    11    34    35    1
    12    35    36    1
    13    36    37    1
    14     2     3    1
    15     3     4    1
    16     4    21    1
    17    21    22   ar
    18    22    23   ar
    19    23    24   ar
    20    24    25   ar
    21     4     5    2
    22     5     6    1
    23     6     8    1
    24     8     9   ar
    25     9    10   ar
    26    10    11   ar
    27    11    12    1
    28    11    13   ar
    29    13    14   ar
    30    14    15    1
    31    15    16   ar
    32    16    17   ar
    33    17    18   ar
    34    18    19   ar
    35    19    20   ar
    36     6     1    1
    37    14     8   ar
    38    20    15   ar
    39    37    32    1
    40    25    21   ar
    41     3     7    1
@<TRIPOS>MOLECULE
*****
 37 41 0 0 0
SMALL
GASTEIGER

@<TRIPOS>ATOM
      1 C         141.2924  140.1442  162.1686 C.2     1  UNL1        0.1397
      2 C         141.8558  140.6853  160.8881 C.2     1  UNL1        0.1355
      3 N         140.9376  141.0477  159.7586 N.pl3   1  UNL1       -0.1998
      4 C         139.4560  140.8691  159.9097 C.2     1  UNL1        0.3442
      5 N         138.8926  140.3280  161.1903 N.2     1  UNL1       -0.0580
      6 C         139.8108  139.9656  162.3197 C.3     1  UNL1        0.2687
      7 H         141.3074  141.4028  158.9182 H       1  UNL1        0.2983
      8 C         139.2473  139.4245  163.6002 C.ar    1  UNL1        0.0309
      9 C         139.2211  137.9443  163.8418 C.ar    1  UNL1        0.0025
     10 C         138.6576  137.4032  165.1223 C.ar    1  UNL1        0.0295
     11 C         138.1204  138.3423  166.1613 C.ar    1  UNL1        0.1401
     12 F         137.5569  137.8012  167.4418 F       1  UNL1       -0.2042
     13 C         138.1465  139.8225  165.9197 C.ar    1  UNL1        0.0295
     14 C         138.7100  140.3636  164.6392 C.ar    1  UNL1        0.0026
     15 C         138.7362  141.8438  164.3976 C.ar    1  UNL1       -0.0001
     16 C         139.8558  142.6744  164.9515 C.ar    1  UNL1       -0.0000
     17 C         139.8820  144.1546  164.7100 C.ar    1  UNL1       -0.0000
     18 C         138.7886  144.8042  163.9145 C.ar    1  UNL1       -0.0000
     19 C         137.6692  143.9736  163.3607 C.ar    1  UNL1       -0.0000
     20 C         137.6430  142.4934  163.6022 C.ar    1  UNL1       -0.0000
     21 C         138.5378  141.2315  158.7803 C.ar    1  UNL1        0.1931
     22 N         137.5512  140.3163  158.1178 N.ar    1  UNL1       -0.2297
     23 C         136.8486  141.0919  157.0431 C.ar    1  UNL1        0.1067
     24 C         137.4011  142.4865  157.0415 C.ar    1  UNL1        0.0577
     25 S         138.4450  142.5727  158.1151 S.2     1  UNL1       -0.0586
     26 C         142.2106  139.7818  163.2980 C.2     1  UNL1        0.3447
     27 O         142.7891  138.4004  163.3805 O.2     1  UNL1       -0.2450
     28 O         142.5503  140.8009  164.3449 O.3     1  UNL1       -0.4455
     29 C         141.8287  139.7180  166.5937 C.3     1  UNL1        0.0513
     30 C         142.8815  140.3610  165.7402 C.3     1  UNL1        0.2089
     31 C         143.3375  140.8640  160.7369 C.3     1  UNL1        0.1405
     32 N         143.9301  141.0975  159.3789 N.3     1  UNL1       -0.2617
     33 C         143.7777  140.0607  158.3057 C.3     1  UNL1        0.1050
     34 C         144.3703  140.2942  156.9476 C.3     1  UNL1        0.1595
     35 O         145.1153  141.5646  156.6628 O.3     1  UNL1       -0.3508
     36 C         145.2677  142.6014  157.7360 C.3     1  UNL1        0.1595
     37 C         144.6751  142.3679  159.0940 C.3     1  UNL1        0.1050
@<TRIPOS>BOND
     1    29    30    1
     2    30    28    1
     3    28    26    1
     4    26    27    2
     5    26     1    1
     6     1     2    2
     7     2    31    1
     8    31    32    1
     9    32    33    1
    10    33    34    1
    11    34    35    1
    12    35    36    1
    13    36    37    1
    14     2     3    1
    15     3     4    1
    16     4    21    1
    17    21    22   ar
    18    22    23   ar
    19    23    24   ar
    20    24    25   ar
    21     4     5    2
    22     5     6    1
    23     6     8    1
    24     8     9   ar
    25     9    10   ar
    26    10    11   ar
    27    11    12    1
    28    11    13   ar
    29    13    14   ar
    30    14    15    1
    31    15    16   ar
    32    16    17   ar
    33    17    18   ar
    34    18    19   ar
    35    19    20   ar
    36     6     1    1
    37    14     8   ar
    38    20    15   ar
    39    37    32    1
    40    25    21   ar
    41     3     7    1
@<TRIPOS>MOLECULE
*****
 37 41 0 0 0
SMALL
GASTEIGER

@<TRIPOS>ATOM
      1 C         143.3767  141.2327  161.3285 C.2     1  UNL1        0.1397
      2 C         143.2722  141.6553  159.8931 C.2     1  UNL1        0.1355
      3 N         142.8758  140.6584  158.8447 N.pl3   1  UNL1       -0.1998
      4 C         142.5839  139.2389  159.2317 C.2     1  UNL1        0.3442
      5 N         142.6884  138.8163  160.6671 N.2     1  UNL1       -0.0580
      6 C         143.0848  139.8132  161.7155 C.3     1  UNL1        0.2687
      7 H         142.8072  140.9358  157.9026 H       1  UNL1        0.2983
      8 C         143.1894  139.3905  163.1510 C.ar    1  UNL1        0.0309
      9 C         144.5357  139.2714  163.8015 C.ar    1  UNL1        0.0025
     10 C         144.6402  138.8487  165.2369 C.ar    1  UNL1        0.0295
     11 C         143.3985  138.5452  166.0218 C.ar    1  UNL1        0.1401
     12 F         143.5030  138.1226  167.4572 F       1  UNL1       -0.2042
     13 C         142.0522  138.6644  165.3712 C.ar    1  UNL1        0.0295
     14 C         141.9476  139.0871  163.9358 C.ar    1  UNL1        0.0026
     15 C         140.6013  139.2063  163.2852 C.ar    1  UNL1       -0.0001
     16 C         139.9447  140.5492  163.1608 C.ar    1  UNL1       -0.0000
     17 C         138.5984  140.6684  162.5102 C.ar    1  UNL1       -0.0000
     18 C         137.9087  139.4446  161.9840 C.ar    1  UNL1       -0.0000
     19 C         138.5654  138.1018  162.1084 C.ar    1  UNL1       -0.0000
     20 C         139.9117  137.9826  162.7589 C.ar    1  UNL1       -0.0000
     21 C         142.1875  138.2421  158.1833 C.ar    1  UNL1        0.1931
     22 N         143.0427  137.1270  157.6588 N.ar    1  UNL1       -0.2297
     23 C         142.2500  136.3810  156.6267 C.ar    1  UNL1        0.1067
     24 C         140.9049  137.0351  156.5133 C.ar    1  UNL1        0.0577
     25 S         140.8663  138.1853  157.4754 S.2     1  UNL1       -0.0586
     26 C         143.7731  142.2296  162.3768 C.2     1  UNL1        0.3447
     27 O         145.2222  142.5443  162.6028 O.2     1  UNL1       -0.2450
     28 O         142.7204  142.9117  163.1993 O.3     1  UNL1       -0.4455
     29 C         143.1089  142.2816  165.6897 C.3     1  UNL1        0.0513
     30 C         143.0196  143.3203  164.6112 C.3     1  UNL1        0.2089
     31 C         143.5640  143.0749  159.5060 C.3     1  UNL1        0.1405
     32 N         142.4366  144.0163  159.2018 N.3     1  UNL1       -0.2617
     33 C         141.4220  144.3377  160.2588 C.3     1  UNL1        0.1050
     34 C         140.2945  145.2791  159.9545 C.3     1  UNL1        0.1595
     35 O         140.1816  145.8991  158.5934 O.3     1  UNL1       -0.3508
     36 C         141.1963  145.5777  157.5364 C.3     1  UNL1        0.1595
     37 C         142.3237  144.6363  157.8405 C.3     1  UNL1        0.1050
@<TRIPOS>BOND
     1    29    30    1
     2    30    28    1
     3    28    26    1
     4    26    27    2
     5    26     1    1
     6     1     2    2
     7     2    31    1
     8    31    32    1
     9    32    33    1
    10    33    34    1
    11    34    35    1
    12    35    36    1
    13    36    37    1
    14     2     3    1
    15     3     4    1
    16     4    21    1
    17    21    22   ar
    18    22    23   ar
    19    23    24   ar
    20    24    25   ar
    21     4     5    2
    22     5     6    1
    23     6     8    1
    24     8     9   ar
    25     9    10   ar
    26    10    11   ar
    27    11    12    1
    28    11    13   ar
    29    13    14   ar
    30    14    15    1
    31    15    16   ar
    32    16    17   ar
    33    17    18   ar
    34    18    19   ar
    35    19    20   ar
    36     6     1    1
    37    14     8   ar
    38    20    15   ar
    39    37    32    1
    40    25    21   ar
    41     3     7    1
@<TRIPOS>MOLECULE
*****
 37 41 0 0 0
SMALL
GASTEIGER

@<TRIPOS>ATOM
      1 C         142.8394  141.5427  162.0358 C.2     1  UNL1        0.1397
      2 C         142.5521  142.1832  160.7102 C.2     1  UNL1        0.1355
      3 N         142.5150  141.3470  159.4655 N.pl3   1  UNL1       -0.1998
      4 C         142.7652  139.8703  159.5463 C.2     1  UNL1        0.3442
      5 N         143.0525  139.2297  160.8718 N.2     1  UNL1       -0.0580
      6 C         143.0896  140.0659  162.1166 C.3     1  UNL1        0.2687
      7 H         142.3264  141.7675  158.5955 H       1  UNL1        0.2983
      8 C         143.3769  139.4253  163.4421 C.ar    1  UNL1        0.0309
      9 C         144.7756  139.4173  163.9838 C.ar    1  UNL1        0.0025
     10 C         145.0630  138.7767  165.3093 C.ar    1  UNL1        0.0295
     11 C         143.9515  138.1440  166.0932 C.ar    1  UNL1        0.1401
     12 F         144.2388  137.5034  167.4188 F       1  UNL1       -0.2042
     13 C         142.5527  138.1520  165.5516 C.ar    1  UNL1        0.0295
     14 C         142.2654  138.7927  164.2260 C.ar    1  UNL1        0.0026
     15 C         140.8667  138.8007  163.6844 C.ar    1  UNL1       -0.0001
     16 C         140.4373  137.7528  162.7007 C.ar    1  UNL1       -0.0000
     17 C         139.0385  137.7608  162.1590 C.ar    1  UNL1       -0.0000
     18 C         138.0691  138.8167  162.6011 C.ar    1  UNL1       -0.0000
     19 C         138.4985  139.8646  163.5848 C.ar    1  UNL1       -0.0000
     20 C         139.8973  139.8565  164.1264 C.ar    1  UNL1       -0.0000
     21 C         142.7281  139.0341  158.3015 C.ar    1  UNL1        0.1931
     22 N         143.0374  137.5690  158.2140 N.ar    1  UNL1       -0.2297
     23 C         142.8757  137.1456  156.7841 C.ar    1  UNL1        0.1067
     24 C         142.4663  138.3491  155.9879 C.ar    1  UNL1        0.0577
     25 S         142.3751  139.5162  156.9257 S.2     1  UNL1       -0.0586
     26 C         142.8765  142.3788  163.2805 C.2     1  UNL1        0.3447
     27 O         144.1289  143.1162  163.6517 O.2     1  UNL1       -0.2450
     28 O         141.6612  142.4777  164.1541 O.3     1  UNL1       -0.4455
     29 C         142.5308  141.7679  166.4972 C.3     1  UNL1        0.0513
     30 C         141.8123  142.7511  165.6212 C.3     1  UNL1        0.2089
     31 C         142.3019  143.6601  160.6294 C.3     1  UNL1        0.1405
     32 N         141.0025  144.2284  161.1177 N.3     1  UNL1       -0.2617
     33 C         140.8618  145.7072  161.3260 C.3     1  UNL1        0.1050
     34 C         139.5624  146.2756  161.8144 C.3     1  UNL1        0.1595
     35 O         138.4036  145.3652  162.0944 O.3     1  UNL1       -0.3508
     36 C         138.5443  143.8864  161.8861 C.3     1  UNL1        0.1595
     37 C         139.8437  143.3180  161.3978 C.3     1  UNL1        0.1050
@<TRIPOS>BOND
     1    29    30    1
     2    30    28    1
     3    28    26    1
     4    26    27    2
     5    26     1    1
     6     1     2    2
     7     2    31    1
     8    31    32    1
     9    32    33    1
    10    33    34    1
    11    34    35    1
    12    35    36    1
    13    36    37    1
    14     2     3    1
    15     3     4    1
    16     4    21    1
    17    21    22   ar
    18    22    23   ar
    19    23    24   ar
    20    24    25   ar
    21     4     5    2
    22     5     6    1
    23     6     8    1
    24     8     9   ar
    25     9    10   ar
    26    10    11   ar
    27    11    12    1
    28    11    13   ar
    29    13    14   ar
    30    14    15    1
    31    15    16   ar
    32    16    17   ar
    33    17    18   ar
    34    18    19   ar
    35    19    20   ar
    36     6     1    1
    37    14     8   ar
    38    20    15   ar
    39    37    32    1
    40    25    21   ar
    41     3     7    1
@<TRIPOS>MOLECULE
*****
 37 41 0 0 0
SMALL
GASTEIGER

@<TRIPOS>ATOM
      1 C         140.9120  142.7617  163.0484 C.2     1  UNL1        0.1397
      2 C         140.4075  142.6121  161.6438 C.2     1  UNL1        0.1355
      3 N         140.8461  141.4451  160.8097 N.pl3   1  UNL1       -0.1998
      4 C         141.7891  140.4277  161.3802 C.2     1  UNL1        0.3442
      5 N         142.2936  140.5774  162.7848 N.2     1  UNL1       -0.0580
      6 C         141.8551  141.7444  163.6189 C.3     1  UNL1        0.2687
      7 H         140.5149  141.3469  159.8877 H       1  UNL1        0.2983
      8 C         142.3596  141.8940  165.0236 C.ar    1  UNL1        0.0309
      9 C         143.4322  142.8960  165.3325 C.ar    1  UNL1        0.0025
     10 C         143.9367  143.0457  166.7371 C.ar    1  UNL1        0.0295
     11 C         143.3687  142.1932  167.8330 C.ar    1  UNL1        0.1401
     12 F         143.8733  142.3428  169.2376 F       1  UNL1       -0.2042
     13 C         142.2962  141.1911  167.5241 C.ar    1  UNL1        0.0295
     14 C         141.7916  141.0415  166.1194 C.ar    1  UNL1        0.0026
     15 C         140.7190  140.0394  165.8105 C.ar    1  UNL1       -0.0001
     16 C         139.2780  140.3893  166.0370 C.ar    1  UNL1       -0.0000
     17 C         138.2055  139.3872  165.7281 C.ar    1  UNL1       -0.0000
     18 C         138.5739  138.0352  165.1927 C.ar    1  UNL1       -0.0000
     19 C         140.0148  137.6855  164.9662 C.ar    1  UNL1       -0.0000
     20 C         141.0874  138.6875  165.2750 C.ar    1  UNL1       -0.0000
     21 C         142.2277  139.2607  160.5461 C.ar    1  UNL1        0.1931
     22 N         142.1211  139.1541  159.0537 N.ar    1  UNL1       -0.2297
     23 C         142.6774  137.8229  158.6431 C.ar    1  UNL1        0.1067
     24 C         143.1279  137.1068  159.8818 C.ar    1  UNL1        0.0577
     25 S         142.8499  137.9955  161.0578 S.2     1  UNL1       -0.0586
     26 C         140.4734  143.9287  163.8825 C.2     1  UNL1        0.3447
     27 O         141.1319  145.2650  163.7079 O.2     1  UNL1       -0.2450
     28 O         139.3763  143.7594  164.8914 O.3     1  UNL1       -0.4455
     29 C         137.3569  142.5399  163.8028 C.3     1  UNL1        0.0513
     30 C         137.9433  143.7604  164.4483 C.3     1  UNL1        0.2089
     31 C         139.4643  143.6295  161.0732 C.3     1  UNL1        0.1405
     32 N         139.6060  144.0657  159.6451 N.3     1  UNL1       -0.2617
     33 C         140.2715  145.3706  159.3220 C.3     1  UNL1        0.1050
     34 C         140.4132  145.8068  157.8938 C.3     1  UNL1        0.1595
     35 O         139.8895  144.9382  156.7888 O.3     1  UNL1       -0.3508
     36 C         139.2240  143.6333  157.1119 C.3     1  UNL1        0.1595
     37 C         139.0823  143.1970  158.5400 C.3     1  UNL1        0.1050
@<TRIPOS>BOND
     1    29    30    1
     2    30    28    1
     3    28    26    1
     4    26    27    2
     5    26     1    1
     6     1     2    2
     7     2    31    1
     8    31    32    1
     9    32    33    1
    10    33    34    1
    11    34    35    1
    12    35    36    1
    13    36    37    1
    14     2     3    1
    15     3     4    1
    16     4    21    1
    17    21    22   ar
    18    22    23   ar
    19    23    24   ar
    20    24    25   ar
    21     4     5    2
    22     5     6    1
    23     6     8    1
    24     8     9   ar
    25     9    10   ar
    26    10    11   ar
    27    11    12    1
    28    11    13   ar
    29    13    14   ar
    30    14    15    1
    31    15    16   ar
    32    16    17   ar
    33    17    18   ar
    34    18    19   ar
    35    19    20   ar
    36     6     1    1
    37    14     8   ar
    38    20    15   ar
    39    37    32    1
    40    25    21   ar
    41     3     7    1
@<TRIPOS>MOLECULE
*****
 37 41 0 0 0
SMALL
GASTEIGER

@<TRIPOS>ATOM
      1 C         140.7259  142.4381  163.4178 C.2     1  UNL1        0.1397
      2 C         140.2623  142.3251  161.9958 C.2     1  UNL1        0.1355
      3 N         140.7692  141.2116  161.1279 N.pl3   1  UNL1       -0.1998
      4 C         141.7398  140.2112  161.6820 C.2     1  UNL1        0.3442
      5 N         142.2034  140.3243  163.1040 N.2     1  UNL1       -0.0580
      6 C         141.6965  141.4377  163.9719 C.3     1  UNL1        0.2687
      7 H         140.4649  141.1374  160.1946 H       1  UNL1        0.2983
      8 C         142.1602  141.5508  165.3940 C.ar    1  UNL1        0.0309
      9 C         143.1965  142.5694  165.7663 C.ar    1  UNL1        0.0025
     10 C         143.6602  142.6824  167.1883 C.ar    1  UNL1        0.0295
     11 C         143.0876  141.7768  168.2381 C.ar    1  UNL1        0.1401
     12 F         143.5513  141.8899  169.6601 F       1  UNL1       -0.2042
     13 C         142.0513  140.7582  167.8659 C.ar    1  UNL1        0.0295
     14 C         141.5876  140.6452  166.4438 C.ar    1  UNL1        0.0026
     15 C         140.5513  139.6266  166.0716 C.ar    1  UNL1       -0.0001
     16 C         140.9505  138.3897  165.3226 C.ar    1  UNL1       -0.0000
     17 C         139.9142  137.3711  164.9504 C.ar    1  UNL1       -0.0000
     18 C         138.4788  137.5894  165.3271 C.ar    1  UNL1       -0.0000
     19 C         138.0797  138.8262  166.0761 C.ar    1  UNL1       -0.0000
     20 C         139.1159  139.8448  166.4483 C.ar    1  UNL1       -0.0000
     21 C         142.2467  139.0978  160.8141 C.ar    1  UNL1        0.1931
     22 N         142.9255  137.8478  161.2904 N.ar    1  UNL1       -0.2297
     23 C         143.2622  137.0163  160.0882 C.ar    1  UNL1        0.1067
     24 C         142.7914  137.7523  158.8689 C.ar    1  UNL1        0.0577
     25 S         142.1638  139.0387  159.3176 S.2     1  UNL1       -0.0586
     26 C         140.2190  143.5516  164.2857 C.2     1  UNL1        0.3447
     27 O         139.0073  143.3410  165.1443 O.2     1  UNL1       -0.2450
     28 O         140.9238  144.8757  164.2949 O.3     1  UNL1       -0.4455
     29 C         143.4211  145.2684  163.6956 C.3     1  UNL1        0.0513
     30 C         141.9847  145.1677  163.2755 C.3     1  UNL1        0.2089
     31 C         139.2916  143.3255  161.4416 C.3     1  UNL1        0.1405
     32 N         139.4659  143.8459  160.0456 N.3     1  UNL1       -0.2617
     33 C         138.9320  143.0645  158.8818 C.3     1  UNL1        0.1050
     34 C         139.1063  143.5850  157.4858 C.3     1  UNL1        0.1595
     35 O         139.8146  144.8866  157.2536 O.3     1  UNL1       -0.3508
     36 C         140.3486  145.6679  158.4173 C.3     1  UNL1        0.1595
     37 C         140.1743  145.1476  159.8133 C.3     1  UNL1        0.1050
@<TRIPOS>BOND
     1    29    30    1
     2    30    28    1
     3    28    26    1
     4    26    27    2
     5    26     1    1
     6     1     2    2
     7     2    31    1
     8    31    32    1
     9    32    33    1
    10    33    34    1
    11    34    35    1
    12    35    36    1
    13    36    37    1
    14     2     3    1
    15     3     4    1
    16     4    21    1
    17    21    22   ar
    18    22    23   ar
    19    23    24   ar
    20    24    25   ar
    21     4     5    2
    22     5     6    1
    23     6     8    1
    24     8     9   ar
    25     9    10   ar
    26    10    11   ar
    27    11    12    1
    28    11    13   ar
    29    13    14   ar
    30    14    15    1
    31    15    16   ar
    32    16    17   ar
    33    17    18   ar
    34    18    19   ar
    35    19    20   ar
    36     6     1    1
    37    14     8   ar
    38    20    15   ar
    39    37    32    1
    40    25    21   ar
    41     3     7    1
@<TRIPOS>MOLECULE
*****
 37 41 0 0 0
SMALL
GASTEIGER

@<TRIPOS>ATOM
      1 C         139.6472  142.0936  161.6307 C.2     1  UNL1        0.1397
      2 C         139.8535  142.4142  160.1800 C.2     1  UNL1        0.1355
      3 N         140.3822  141.3647  159.2477 N.pl3   1  UNL1       -0.1998
      4 C         140.7048  139.9947  159.7662 C.2     1  UNL1        0.3442
      5 N         140.4985  139.6741  161.2169 N.2     1  UNL1       -0.0580
      6 C         139.9698  140.7235  162.1492 C.3     1  UNL1        0.2687
      7 H         140.5176  141.5752  158.2956 H       1  UNL1        0.2983
      8 C         139.7636  140.4029  163.6000 C.ar    1  UNL1        0.0309
      9 C         138.3958  140.0463  164.1022 C.ar    1  UNL1        0.0025
     10 C         138.1896  139.7257  165.5529 C.ar    1  UNL1        0.0295
     11 C         139.3511  139.7616  166.5015 C.ar    1  UNL1        0.1401
     12 F         139.1448  139.4409  167.9522 F       1  UNL1       -0.2042
     13 C         140.7188  140.1181  165.9992 C.ar    1  UNL1        0.0295
     14 C         140.9250  140.4388  164.5485 C.ar    1  UNL1        0.0026
     15 C         142.2927  140.7953  164.0462 C.ar    1  UNL1       -0.0001
     16 C         143.2174  139.7188  163.5601 C.ar    1  UNL1       -0.0000
     17 C         144.5851  140.0753  163.0579 C.ar    1  UNL1       -0.0000
     18 C         145.0282  141.5083  163.0418 C.ar    1  UNL1       -0.0000
     19 C         144.1035  142.5847  163.5278 C.ar    1  UNL1       -0.0000
     20 C         142.7358  142.2282  164.0301 C.ar    1  UNL1       -0.0000
     21 C         141.2335  138.9452  158.8340 C.ar    1  UNL1        0.1931
     22 N         142.6007  138.3301  158.8833 N.ar    1  UNL1       -0.2297
     23 C         142.7001  137.3313  157.7685 C.ar    1  UNL1        0.1067
     24 C         141.3943  137.3292  157.0303 C.ar    1  UNL1        0.0577
     25 S         140.4880  138.3266  157.6888 S.2     1  UNL1       -0.0586
     26 C         139.1185  143.1430  162.5629 C.2     1  UNL1        0.3447
     27 O         137.6439  143.2456  162.8179 O.2     1  UNL1       -0.2450
     28 O         140.0643  144.0899  163.2402 O.3     1  UNL1       -0.4455
     29 C         139.6309  143.6575  165.7651 C.3     1  UNL1        0.0513
     30 C         139.7513  144.6094  164.6121 C.3     1  UNL1        0.2089
     31 C         139.5309  143.7843  159.6614 C.3     1  UNL1        0.1405
     32 N         140.2547  144.3221  158.4628 N.3     1  UNL1       -0.2617
     33 C         139.7519  144.0160  157.0831 C.3     1  UNL1        0.1050
     34 C         140.4758  144.5539  155.8845 C.3     1  UNL1        0.1595
     35 O         141.7025  145.3979  156.0655 O.3     1  UNL1       -0.3508
     36 C         142.2053  145.7041  157.4451 C.3     1  UNL1        0.1595
     37 C         141.4815  145.1662  158.6438 C.3     1  UNL1        0.1050
@<TRIPOS>BOND
     1    29    30    1
     2    30    28    1
     3    28    26    1
     4    26    27    2
     5    26     1    1
     6     1     2    2
     7     2    31    1
     8    31    32    1
     9    32    33    1
    10    33    34    1
    11    34    35    1
    12    35    36    1
    13    36    37    1
    14     2     3    1
    15     3     4    1
    16     4    21    1
    17    21    22   ar
    18    22    23   ar
    19    23    24   ar
    20    24    25   ar
    21     4     5    2
    22     5     6    1
    23     6     8    1
    24     8     9   ar
    25     9    10   ar
    26    10    11   ar
    27    11    12    1
    28    11    13   ar
    29    13    14   ar
    30    14    15    1
    31    15    16   ar
    32    16    17   ar
    33    17    18   ar
    34    18    19   ar
    35    19    20   ar
    36     6     1    1
    37    14     8   ar
    38    20    15   ar
    39    37    32    1
    40    25    21   ar
    41     3     7    1
