@<TRIPOS>MOLECULE
*****
 44 48 0 0 0
SMALL
GASTEIGER

@<TRIPOS>ATOM
      1 C         137.1579  141.6339  156.6829 C.2     1  UNL1        0.2458
      2 O         137.0688  140.5420  157.7075 O.2     1  UNL1       -0.2730
      3 N         138.1701  142.7295  156.8404 N.am    1  UNL1       -0.2767
      4 C         138.3755  143.8818  155.9022 C.3     1  UNL1        0.0949
      5 C         139.4871  144.7297  156.4458 C.3     1  UNL1        0.0390
      6 C         139.9686  144.1015  157.7200 C.3     1  UNL1        0.0758
      7 C         139.1547  142.8654  157.9638 C.3     1  UNL1        0.1091
      8 N         141.0706  144.6186  158.5964 N.3     1  UNL1       -0.2982
      9 H         141.2539  145.5784  158.3036 H       1  UNL1        0.1232
     10 C         140.8940  144.6465  160.0857 C.3     1  UNL1        0.0542
     11 C         140.0888  145.7386  160.7251 C.3     1  UNL1        0.0185
     12 C         139.9122  145.7665  162.2144 C.3     1  UNL1        0.0340
     13 C         140.5408  144.7022  163.0643 C.3     1  UNL1        0.1231
     14 O         139.8734  145.5238  164.1270 O.3     1  UNL1       -0.3812
     15 C         141.3459  143.6101  162.4248 C.3     1  UNL1        0.0340
     16 C         141.5226  143.5823  160.9356 C.3     1  UNL1        0.0185
     17 H         139.4121  146.2715  163.7157 H       1  UNL1        0.2107
     18 C         140.9375  143.9234  164.2832 C.ar    1  UNL1        0.0830
     19 C         139.9235  143.6304  165.3491 C.ar    1  UNL1        0.0172
     20 C         140.3204  142.8515  166.5681 C.ar    1  UNL1        0.0059
     21 C         141.7312  142.3656  166.7212 C.ar    1  UNL1        0.0549
     22 C         142.7452  142.6586  165.6553 C.ar    1  UNL1        0.1015
     23 N         142.3484  143.4374  164.4364 N.ar    1  UNL1       -0.2458
     24 C         142.1280  141.5867  167.9402 C.ar    1  UNL1        0.1638
     25 N         141.6205  140.1887  168.1350 N.ar    1  UNL1       -0.2250
     26 C         142.0173  139.4099  169.3541 C.ar    1  UNL1        0.1022
     27 C         142.9216  140.0291  170.3781 C.ar    1  UNL1        0.0414
     28 C         143.4292  141.4271  170.1833 C.ar    1  UNL1        0.1022
     29 N         143.0324  142.2059  168.9643 N.ar    1  UNL1       -0.2250
     30 C         136.2346  141.6300  155.5006 C.3     1  UNL1        0.1761
     31 O         134.7528  139.0297  155.7066 O.2     1  UNL1       -0.2701
     32 C         134.0083  140.3276  155.8119 C.2     1  UNL1        0.2462
     33 N         134.7492  141.6277  155.7089 N.am    1  UNL1       -0.2931
     34 H         134.2605  142.4795  155.7780 H       1  UNL1        0.1502
     35 C         132.5228  140.3254  156.0202 C.ar    1  UNL1        0.0533
     36 C         131.6780  141.4029  155.4076 C.ar    1  UNL1        0.0045
     37 C         130.1925  141.4007  155.6159 C.ar    1  UNL1        0.0001
     38 C         129.5518  140.3210  156.4367 C.ar    1  UNL1        0.0039
     39 C         130.3967  139.2435  157.0493 C.ar    1  UNL1        0.0716
     40 C         131.8822  139.2457  156.8410 C.ar    1  UNL1        0.0084
     41 C         129.7560  138.1638  157.8701 C.3     1  UNL1        0.4186
     42 F         129.1154  137.0840  158.6910 F       1  UNL1       -0.1659
     43 F         129.5998  139.1243  159.0116 F       1  UNL1       -0.1659
     44 F         129.9123  137.2032  156.7287 F       1  UNL1       -0.1659
@<TRIPOS>BOND
     1    31    32    2
     2    32    33   am
     3    33    30    1
     4    30     1    1
     5     1     2    2
     6     1     3   am
     7     3     4    1
     8     4     5    1
     9     5     6    1
    10     6     8    1
    11    10     8    1
    12    10    11    1
    13    11    12    1
    14    12    13    1
    15    13    14    1
    16    13    18    1
    17    18    19   ar
    18    19    20   ar
    19    20    21   ar
    20    21    24    1
    21    24    25   ar
    22    25    26   ar
    23    26    27   ar
    24    27    28   ar
    25    28    29   ar
    26    21    22   ar
    27    22    23   ar
    28    13    15    1
    29    15    16    1
    30     6     7    1
    31    32    35    1
    32    35    36   ar
    33    36    37   ar
    34    37    38   ar
    35    38    39   ar
    36    39    41    1
    37    41    42    1
    38    41    43    1
    39    41    44    1
    40    39    40   ar
    41     7     3    1
    42    40    35   ar
    43    16    10    1
    44    23    18   ar
    45    29    24   ar
    46    33    34    1
    47     8     9    1
    48    14    17    1
@<TRIPOS>MOLECULE
*****
 44 48 0 0 0
SMALL
GASTEIGER

@<TRIPOS>ATOM
      1 C         137.1182  141.6114  156.6198 C.2     1  UNL1        0.2458
      2 O         137.0505  140.4898  157.6134 O.2     1  UNL1       -0.2730
      3 N         138.1413  142.6964  156.7819 N.am    1  UNL1       -0.2767
      4 C         138.3281  143.8751  155.8732 C.3     1  UNL1        0.0949
      5 C         139.4594  144.7002  156.4110 C.3     1  UNL1        0.0390
      6 C         139.9719  144.0315  157.6520 C.3     1  UNL1        0.0758
      7 C         139.1573  142.7930  157.8813 C.3     1  UNL1        0.1091
      8 N         141.1008  144.5161  158.5127 N.3     1  UNL1       -0.2982
      9 H         141.3227  145.4619  158.2021 H       1  UNL1        0.1232
     10 C         140.9355  144.5769  160.0023 C.3     1  UNL1        0.0542
     11 C         140.1720  145.7071  160.6267 C.3     1  UNL1        0.0185
     12 C         140.0068  145.7679  162.1162 C.3     1  UNL1        0.0340
     13 C         140.6050  144.6986  162.9815 C.3     1  UNL1        0.1231
     14 O         139.9730  145.5615  164.0332 O.3     1  UNL1       -0.3812
     15 C         141.3685  143.5685  162.3572 C.3     1  UNL1        0.0340
     16 C         141.5337  143.5076  160.8676 C.3     1  UNL1        0.0185
     17 H         139.5344  146.3167  163.6111 H       1  UNL1        0.2107
     18 C         140.9837  143.9291  164.2121 C.ar    1  UNL1        0.0830
     19 C         142.3981  143.4669  164.4021 C.ar    1  UNL1        0.0172
     20 C         142.7767  142.6973  165.6328 C.ar    1  UNL1        0.0059
     21 C         141.7410  142.3899  166.6733 C.ar    1  UNL1        0.0549
     22 C         140.3267  142.8520  166.4833 C.ar    1  UNL1        0.1015
     23 N         139.9480  143.6216  165.2527 N.ar    1  UNL1       -0.2458
     24 C         142.1197  141.6203  167.9040 C.ar    1  UNL1        0.1638
     25 N         143.0823  142.2109  168.8912 N.ar    1  UNL1       -0.2250
     26 C         143.4609  141.4412  170.1218 C.ar    1  UNL1        0.1022
     27 C         142.8771  140.0811  170.3650 C.ar    1  UNL1        0.0414
     28 C         141.9145  139.4906  169.3778 C.ar    1  UNL1        0.1022
     29 N         141.5359  140.2602  168.1472 N.ar    1  UNL1       -0.2250
     30 C         136.1629  141.6481  155.4639 C.3     1  UNL1        0.1761
     31 O         134.7577  139.0009  155.5973 O.2     1  UNL1       -0.2701
     32 C         133.9817  140.2719  155.7776 C.2     1  UNL1        0.2462
     33 N         134.6843  141.5954  155.7109 N.am    1  UNL1       -0.2931
     34 H         134.1750  142.4296  155.8292 H       1  UNL1        0.1502
     35 C         132.5031  140.2193  156.0245 C.ar    1  UNL1        0.0533
     36 C         131.9078  139.0611  156.7688 C.ar    1  UNL1        0.0045
     37 C         130.4291  139.0085  157.0158 C.ar    1  UNL1        0.0001
     38 C         129.5459  140.1142  156.5185 C.ar    1  UNL1        0.0039
     39 C         130.1413  141.2724  155.7742 C.ar    1  UNL1        0.0716
     40 C         131.6199  141.3250  155.5272 C.ar    1  UNL1        0.0084
     41 C         129.2580  142.3781  155.2769 C.3     1  UNL1        0.4186
     42 F         128.3747  143.4838  154.7796 F       1  UNL1       -0.1659
     43 F         128.0826  141.4464  155.2931 F       1  UNL1       -0.1659
     44 F         130.4334  143.3098  155.2607 F       1  UNL1       -0.1659
@<TRIPOS>BOND
     1    31    32    2
     2    32    33   am
     3    33    30    1
     4    30     1    1
     5     1     2    2
     6     1     3   am
     7     3     4    1
     8     4     5    1
     9     5     6    1
    10     6     8    1
    11    10     8    1
    12    10    11    1
    13    11    12    1
    14    12    13    1
    15    13    14    1
    16    13    18    1
    17    18    19   ar
    18    19    20   ar
    19    20    21   ar
    20    21    24    1
    21    24    25   ar
    22    25    26   ar
    23    26    27   ar
    24    27    28   ar
    25    28    29   ar
    26    21    22   ar
    27    22    23   ar
    28    13    15    1
    29    15    16    1
    30     6     7    1
    31    32    35    1
    32    35    36   ar
    33    36    37   ar
    34    37    38   ar
    35    38    39   ar
    36    39    41    1
    37    41    42    1
    38    41    43    1
    39    41    44    1
    40    39    40   ar
    41     7     3    1
    42    40    35   ar
    43    16    10    1
    44    23    18   ar
    45    29    24   ar
    46    33    34    1
    47     8     9    1
    48    14    17    1
@<TRIPOS>MOLECULE
*****
 44 48 0 0 0
SMALL
GASTEIGER

@<TRIPOS>ATOM
      1 C         140.5906  143.9877  160.6622 C.2     1  UNL1        0.2458
      2 O         141.8290  144.7050  160.2128 O.2     1  UNL1       -0.2730
      3 N         139.9816  142.9269  159.7941 N.am    1  UNL1       -0.2767
      4 C         138.7512  142.1287  160.1091 C.3     1  UNL1        0.0949
      5 C         138.5052  141.1865  158.9682 C.3     1  UNL1        0.0390
      6 C         139.5835  141.4024  157.9480 C.3     1  UNL1        0.0758
      7 C         140.4959  142.4780  158.4584 C.3     1  UNL1        0.1091
      8 N         139.7245  140.6711  156.6460 N.3     1  UNL1       -0.2982
      9 H         140.0147  141.3595  155.9515 H       1  UNL1        0.1232
     10 C         140.6747  139.5158  156.5338 C.3     1  UNL1        0.0542
     11 C         142.1414  139.7667  156.3447 C.3     1  UNL1        0.0185
     12 C         143.0916  138.6115  156.2325 C.3     1  UNL1        0.0340
     13 C         142.5750  137.2054  156.3093 C.3     1  UNL1        0.1231
     14 O         144.0389  136.9354  156.1247 O.3     1  UNL1       -0.3812
     15 C         141.1083  136.9544  156.4984 C.3     1  UNL1        0.0340
     16 C         140.1582  138.1097  156.6106 C.3     1  UNL1        0.0185
     17 H         144.5169  137.7767  156.0571 H       1  UNL1        0.2107
     18 C         142.5669  135.7054  156.3220 C.ar    1  UNL1        0.0830
     19 C         141.7302  134.9514  155.3313 C.ar    1  UNL1        0.0172
     20 C         141.7222  133.4515  155.3441 C.ar    1  UNL1        0.0059
     21 C         142.5509  132.7056  156.3476 C.ar    1  UNL1        0.0549
     22 C         143.3876  133.4596  157.3382 C.ar    1  UNL1        0.1015
     23 N         143.3956  134.9595  157.3255 N.ar    1  UNL1       -0.2458
     24 C         142.5428  131.2056  156.3603 C.ar    1  UNL1        0.1638
     25 N         143.3299  130.4601  157.3970 N.ar    1  UNL1       -0.2250
     26 C         143.3218  128.9602  157.4096 C.ar    1  UNL1        0.1022
     27 C         142.5266  128.2058  156.3856 C.ar    1  UNL1        0.0414
     28 C         141.7395  128.9513  155.3489 C.ar    1  UNL1        0.1022
     29 N         141.7477  130.4512  155.3363 N.ar    1  UNL1       -0.2250
     30 C         139.9614  144.3312  161.9798 C.3     1  UNL1        0.1761
     31 O         137.6090  143.0761  163.3550 O.2     1  UNL1       -0.2701
     32 C         138.9984  142.8130  163.8553 C.2     1  UNL1        0.2462
     33 N         140.1746  143.4405  163.1678 N.am    1  UNL1       -0.2931
     34 H         141.0865  143.2678  163.4962 H       1  UNL1        0.1502
     35 C         139.2117  141.9223  165.0433 C.ar    1  UNL1        0.0533
     36 C         140.0226  142.4072  166.2083 C.ar    1  UNL1        0.0045
     37 C         140.2358  141.5165  167.3963 C.ar    1  UNL1        0.0001
     38 C         139.6382  140.1409  167.4192 C.ar    1  UNL1        0.0039
     39 C         138.8273  139.6560  166.2542 C.ar    1  UNL1        0.0716
     40 C         138.6140  140.5467  165.0662 C.ar    1  UNL1        0.0084
     41 C         138.2297  138.2804  166.2771 C.3     1  UNL1        0.4186
     42 F         137.6320  136.9047  166.3000 F       1  UNL1       -0.1659
     43 F         137.3264  138.6916  167.4018 F       1  UNL1       -0.1659
     44 F         139.1329  137.8692  165.1524 F       1  UNL1       -0.1659
@<TRIPOS>BOND
     1    31    32    2
     2    32    33   am
     3    33    30    1
     4    30     1    1
     5     1     2    2
     6     1     3   am
     7     3     4    1
     8     4     5    1
     9     5     6    1
    10     6     8    1
    11    10     8    1
    12    10    11    1
    13    11    12    1
    14    12    13    1
    15    13    14    1
    16    13    18    1
    17    18    19   ar
    18    19    20   ar
    19    20    21   ar
    20    21    24    1
    21    24    25   ar
    22    25    26   ar
    23    26    27   ar
    24    27    28   ar
    25    28    29   ar
    26    21    22   ar
    27    22    23   ar
    28    13    15    1
    29    15    16    1
    30     6     7    1
    31    32    35    1
    32    35    36   ar
    33    36    37   ar
    34    37    38   ar
    35    38    39   ar
    36    39    41    1
    37    41    42    1
    38    41    43    1
    39    41    44    1
    40    39    40   ar
    41     7     3    1
    42    40    35   ar
    43    16    10    1
    44    23    18   ar
    45    29    24   ar
    46    33    34    1
    47     8     9    1
    48    14    17    1
@<TRIPOS>MOLECULE
*****
 44 48 0 0 0
SMALL
GASTEIGER

@<TRIPOS>ATOM
      1 C         143.6951  139.3780  155.2479 C.2     1  UNL1        0.2458
      2 O         142.3962  139.2019  154.5186 O.2     1  UNL1       -0.2730
      3 N         143.9548  140.6347  156.0245 N.am    1  UNL1       -0.2767
      4 C         145.1996  140.9509  156.7995 C.3     1  UNL1        0.0949
      5 C         145.0294  142.3075  157.4165 C.3     1  UNL1        0.0390
      6 C         143.6794  142.8298  157.0228 C.3     1  UNL1        0.0758
      7 C         143.0153  141.7959  156.1625 C.3     1  UNL1        0.1091
      8 N         143.0960  144.1534  157.4197 N.3     1  UNL1       -0.2982
      9 H         142.5172  144.4657  156.6401 H       1  UNL1        0.1232
     10 C         142.2527  144.2611  158.6555 C.3     1  UNL1        0.0542
     11 C         141.1160  145.2385  158.7050 C.3     1  UNL1        0.0185
     12 C         140.2727  145.3462  159.9408 C.3     1  UNL1        0.0340
     13 C         140.5661  144.4764  161.1271 C.3     1  UNL1        0.1231
     14 O         139.3894  145.2444  161.6519 O.3     1  UNL1       -0.3812
     15 C         141.7028  143.4989  161.0776 C.3     1  UNL1        0.0340
     16 C         142.5461  143.3913  159.8418 C.3     1  UNL1        0.0185
     17 H         139.0806  145.8659  160.9741 H       1  UNL1        0.2107
     18 C         140.4508  143.8734  162.4957 C.ar    1  UNL1        0.0830
     19 C         141.6257  143.8983  163.4278 C.ar    1  UNL1        0.0172
     20 C         141.5103  143.2953  164.7965 C.ar    1  UNL1        0.0059
     21 C         140.2199  142.6672  165.2329 C.ar    1  UNL1        0.0549
     22 C         139.0450  142.6423  164.3007 C.ar    1  UNL1        0.1015
     23 N         139.1604  143.2453  162.9322 N.ar    1  UNL1       -0.2458
     24 C         140.1045  142.0642  166.6015 C.ar    1  UNL1        0.1638
     25 N         139.6460  140.6448  166.7594 N.ar    1  UNL1       -0.2250
     26 C         139.5307  140.0418  168.1281 C.ar    1  UNL1        0.1022
     27 C         139.8739  140.8582  169.3387 C.ar    1  UNL1        0.0414
     28 C         140.3324  142.2777  169.1808 C.ar    1  UNL1        0.1022
     29 N         140.4477  142.8806  167.8121 N.ar    1  UNL1       -0.2250
     30 C         144.7343  138.2973  155.2005 C.3     1  UNL1        0.1761
     31 O         143.2016  137.0960  157.4825 O.2     1  UNL1       -0.2701
     32 C         143.5510  136.2568  156.2894 C.2     1  UNL1        0.2462
     33 N         144.3173  136.8574  155.1484 N.am    1  UNL1       -0.2931
     34 H         144.5466  136.3065  154.3653 H       1  UNL1        0.1502
     35 C         143.1340  134.8168  156.2372 C.ar    1  UNL1        0.0533
     36 C         141.8912  134.4223  155.4958 C.ar    1  UNL1        0.0045
     37 C         141.4742  132.9823  155.4437 C.ar    1  UNL1        0.0001
     38 C         142.3001  131.9369  156.1329 C.ar    1  UNL1        0.0039
     39 C         143.5429  132.3315  156.8743 C.ar    1  UNL1        0.0716
     40 C         143.9598  133.7714  156.9265 C.ar    1  UNL1        0.0084
     41 C         144.3687  131.2861  157.5636 C.3     1  UNL1        0.4186
     42 F         145.1946  130.2406  158.2529 F       1  UNL1       -0.1659
     43 F         145.5887  132.1438  157.4027 F       1  UNL1       -0.1659
     44 F         143.1488  130.4284  157.7245 F       1  UNL1       -0.1659
@<TRIPOS>BOND
     1    31    32    2
     2    32    33   am
     3    33    30    1
     4    30     1    1
     5     1     2    2
     6     1     3   am
     7     3     4    1
     8     4     5    1
     9     5     6    1
    10     6     8    1
    11    10     8    1
    12    10    11    1
    13    11    12    1
    14    12    13    1
    15    13    14    1
    16    13    18    1
    17    18    19   ar
    18    19    20   ar
    19    20    21   ar
    20    21    24    1
    21    24    25   ar
    22    25    26   ar
    23    26    27   ar
    24    27    28   ar
    25    28    29   ar
    26    21    22   ar
    27    22    23   ar
    28    13    15    1
    29    15    16    1
    30     6     7    1
    31    32    35    1
    32    35    36   ar
    33    36    37   ar
    34    37    38   ar
    35    38    39   ar
    36    39    41    1
    37    41    42    1
    38    41    43    1
    39    41    44    1
    40    39    40   ar
    41     7     3    1
    42    40    35   ar
    43    16    10    1
    44    23    18   ar
    45    29    24   ar
    46    33    34    1
    47     8     9    1
    48    14    17    1
@<TRIPOS>MOLECULE
*****
 44 48 0 0 0
SMALL
GASTEIGER

@<TRIPOS>ATOM
      1 C         143.0915  139.9482  156.5927 C.2     1  UNL1        0.2458
      2 O         144.4968  139.7917  157.0934 O.2     1  UNL1       -0.2730
      3 N         142.2939  141.1631  156.9638 N.am    1  UNL1       -0.2767
      4 C         140.8849  141.4559  156.5409 C.3     1  UNL1        0.0949
      5 C         140.4855  142.7723  157.1388 C.3     1  UNL1        0.0390
      6 C         141.6477  143.2932  157.9312 C.3     1  UNL1        0.0758
      7 C         142.7654  142.2986  157.8231 C.3     1  UNL1        0.1091
      8 N         141.6857  144.5822  158.6973 N.3     1  UNL1       -0.2982
      9 H         141.0425  145.2214  158.2301 H       1  UNL1        0.1232
     10 C         141.3308  144.5993  160.1547 C.3     1  UNL1        0.0542
     11 C         140.3727  145.6262  160.6813 C.3     1  UNL1        0.0185
     12 C         140.0179  145.6432  162.1386 C.3     1  UNL1        0.0340
     13 C         140.6213  144.6334  163.0693 C.3     1  UNL1        0.1231
     14 O         139.7700  145.4024  164.0357 O.3     1  UNL1       -0.3812
     15 C         141.5795  143.6066  162.5427 C.3     1  UNL1        0.0340
     16 C         141.9343  143.5895  161.0854 C.3     1  UNL1        0.0185
     17 H         139.3044  146.1106  163.5639 H       1  UNL1        0.2107
     18 C         140.9290  143.8907  164.3356 C.ar    1  UNL1        0.0830
     19 C         139.8576  143.6883  165.3657 C.ar    1  UNL1        0.0172
     20 C         140.1654  142.9455  166.6321 C.ar    1  UNL1        0.0059
     21 C         141.5446  142.4053  166.8683 C.ar    1  UNL1        0.0549
     22 C         142.6161  142.6078  165.8383 C.ar    1  UNL1        0.1015
     23 N         142.3083  143.3505  164.5720 N.ar    1  UNL1       -0.2458
     24 C         141.8524  141.6625  168.1347 C.ar    1  UNL1        0.1638
     25 N         141.8587  142.3885  169.4473 N.ar    1  UNL1       -0.2250
     26 C         142.1665  141.6457  170.7137 C.ar    1  UNL1        0.1022
     27 C         142.4678  140.1770  170.6673 C.ar    1  UNL1        0.0414
     28 C         142.4615  139.4511  169.3547 C.ar    1  UNL1        0.1022
     29 N         142.1538  140.1939  168.0884 N.ar    1  UNL1       -0.2250
     30 C         142.4838  138.8896  155.7208 C.3     1  UNL1        0.1761
     31 O         142.3482  136.7381  153.6346 O.2     1  UNL1       -0.2701
     32 C         142.4979  136.3715  155.0813 C.2     1  UNL1        0.2462
     33 N         142.5657  137.4472  156.1244 N.am    1  UNL1       -0.2931
     34 H         142.6640  137.2066  157.0740 H       1  UNL1        0.1502
     35 C         142.5798  134.9292  155.4850 C.ar    1  UNL1        0.0533
     36 C         141.5267  133.9623  155.0311 C.ar    1  UNL1        0.0045
     37 C         141.6086  132.5200  155.4348 C.ar    1  UNL1        0.0001
     38 C         142.7436  132.0445  156.2925 C.ar    1  UNL1        0.0039
     39 C         143.7968  133.0113  156.7464 C.ar    1  UNL1        0.0716
     40 C         143.7149  134.4537  156.3427 C.ar    1  UNL1        0.0084
     41 C         144.9318  132.5359  157.6040 C.3     1  UNL1        0.4186
     42 F         146.0669  132.0604  158.4617 F       1  UNL1       -0.1659
     43 F         145.3054  131.5326  156.5534 F       1  UNL1       -0.1659
     44 F         144.5583  133.5392  158.6546 F       1  UNL1       -0.1659
@<TRIPOS>BOND
     1    31    32    2
     2    32    33   am
     3    33    30    1
     4    30     1    1
     5     1     2    2
     6     1     3   am
     7     3     4    1
     8     4     5    1
     9     5     6    1
    10     6     8    1
    11    10     8    1
    12    10    11    1
    13    11    12    1
    14    12    13    1
    15    13    14    1
    16    13    18    1
    17    18    19   ar
    18    19    20   ar
    19    20    21   ar
    20    21    24    1
    21    24    25   ar
    22    25    26   ar
    23    26    27   ar
    24    27    28   ar
    25    28    29   ar
    26    21    22   ar
    27    22    23   ar
    28    13    15    1
    29    15    16    1
    30     6     7    1
    31    32    35    1
    32    35    36   ar
    33    36    37   ar
    34    37    38   ar
    35    38    39   ar
    36    39    41    1
    37    41    42    1
    38    41    43    1
    39    41    44    1
    40    39    40   ar
    41     7     3    1
    42    40    35   ar
    43    16    10    1
    44    23    18   ar
    45    29    24   ar
    46    33    34    1
    47     8     9    1
    48    14    17    1
@<TRIPOS>MOLECULE
*****
 44 48 0 0 0
SMALL
GASTEIGER

@<TRIPOS>ATOM
      1 C         143.8353  143.3796  162.4931 C.2     1  UNL1        0.2458
      2 O         145.0465  142.5605  162.1584 O.2     1  UNL1       -0.2730
      3 N         142.7786  143.6147  161.4548 N.am    1  UNL1       -0.2767
      4 C         141.5195  144.4083  161.6421 C.3     1  UNL1        0.0949
      5 C         140.7582  144.3815  160.3500 C.3     1  UNL1        0.0390
      6 C         141.5467  143.5714  159.3640 C.3     1  UNL1        0.0758
      7 C         142.7954  143.0975  160.0469 C.3     1  UNL1        0.1091
      8 N         141.1553  143.2854  157.9446 N.3     1  UNL1       -0.2982
      9 H         140.5574  142.4592  157.9648 H       1  UNL1        0.1232
     10 C         140.4302  144.3251  157.1425 C.3     1  UNL1        0.0542
     11 C         139.1511  143.9746  156.4419 C.3     1  UNL1        0.0185
     12 C         138.4260  145.0143  155.6398 C.3     1  UNL1        0.0340
     13 C         138.9802  146.4045  155.5384 C.3     1  UNL1        0.1231
     14 O         137.7444  146.5549  154.7016 O.3     1  UNL1       -0.3812
     15 C         140.2593  146.7550  156.2390 C.3     1  UNL1        0.0340
     16 C         140.9843  145.7153  157.0410 C.3     1  UNL1        0.0185
     17 H         137.2678  145.7105  154.6740 H       1  UNL1        0.2107
     18 C         139.1050  147.8469  155.1462 C.ar    1  UNL1        0.0830
     19 C         138.5496  148.9175  156.0381 C.ar    1  UNL1        0.0172
     20 C         138.6746  150.3599  155.6459 C.ar    1  UNL1        0.0059
     21 C         139.3549  150.7318  154.3618 C.ar    1  UNL1        0.0549
     22 C         139.9103  149.6612  153.4700 C.ar    1  UNL1        0.1015
     23 N         139.7854  148.2188  153.8621 N.ar    1  UNL1       -0.2458
     24 C         139.4798  152.1743  153.9697 C.ar    1  UNL1        0.1638
     25 N         138.2539  152.9661  153.6232 N.ar    1  UNL1       -0.2250
     26 C         138.3789  154.4086  153.2311 C.ar    1  UNL1        0.1022
     27 C         139.7297  155.0591  153.1854 C.ar    1  UNL1        0.0414
     28 C         140.9556  154.2672  153.5319 C.ar    1  UNL1        0.1022
     29 N         140.8306  152.8247  153.9241 N.ar    1  UNL1       -0.2250
     30 C         143.6809  143.9637  163.8660 C.3     1  UNL1        0.1761
     31 O         144.1106  141.3060  165.1897 O.2     1  UNL1       -0.2701
     32 C         142.8597  142.0869  165.4639 C.2     1  UNL1        0.2462
     33 N         142.6448  143.4157  164.8021 N.am    1  UNL1       -0.2931
     34 H         141.8237  143.9282  164.9821 H       1  UNL1        0.1502
     35 C         141.8235  141.5389  166.3999 C.ar    1  UNL1        0.0533
     36 C         141.1722  140.2195  166.1085 C.ar    1  UNL1        0.0045
     37 C         140.1360  139.6716  167.0446 C.ar    1  UNL1        0.0001
     38 C         139.7512  140.4431  168.2721 C.ar    1  UNL1        0.0039
     39 C         140.4025  141.7625  168.5635 C.ar    1  UNL1        0.0716
     40 C         141.4387  142.3104  167.6274 C.ar    1  UNL1        0.0084
     41 C         140.0177  142.5340  169.7909 C.3     1  UNL1        0.4186
     42 F         139.6328  143.3056  171.0184 F       1  UNL1       -0.1659
     43 F         139.0391  141.4587  170.1600 F       1  UNL1       -0.1659
     44 F         140.9962  143.6093  169.4218 F       1  UNL1       -0.1659
@<TRIPOS>BOND
     1    31    32    2
     2    32    33   am
     3    33    30    1
     4    30     1    1
     5     1     2    2
     6     1     3   am
     7     3     4    1
     8     4     5    1
     9     5     6    1
    10     6     8    1
    11    10     8    1
    12    10    11    1
    13    11    12    1
    14    12    13    1
    15    13    14    1
    16    13    18    1
    17    18    19   ar
    18    19    20   ar
    19    20    21   ar
    20    21    24    1
    21    24    25   ar
    22    25    26   ar
    23    26    27   ar
    24    27    28   ar
    25    28    29   ar
    26    21    22   ar
    27    22    23   ar
    28    13    15    1
    29    15    16    1
    30     6     7    1
    31    32    35    1
    32    35    36   ar
    33    36    37   ar
    34    37    38   ar
    35    38    39   ar
    36    39    41    1
    37    41    42    1
    38    41    43    1
    39    41    44    1
    40    39    40   ar
    41     7     3    1
    42    40    35   ar
    43    16    10    1
    44    23    18   ar
    45    29    24   ar
    46    33    34    1
    47     8     9    1
    48    14    17    1
@<TRIPOS>MOLECULE
*****
 44 48 0 0 0
SMALL
GASTEIGER

@<TRIPOS>ATOM
      1 C         139.4074  137.3154  155.4347 C.2     1  UNL1        0.2458
      2 O         137.9094  137.2581  155.3817 O.2     1  UNL1       -0.2730
      3 N         140.0892  138.3840  156.2366 N.am    1  UNL1       -0.2767
      4 C         141.5709  138.5664  156.3829 C.3     1  UNL1        0.0949
      5 C         141.8065  139.7529  157.2698 C.3     1  UNL1        0.0390
      6 C         140.4705  140.3038  157.6717 C.3     1  UNL1        0.0758
      7 C         139.4091  139.4577  157.0332 C.3     1  UNL1        0.1091
      8 N         140.2368  141.4921  158.5568 N.3     1  UNL1       -0.2982
      9 H         139.6003  142.1119  158.0556 H       1  UNL1        0.1232
     10 C         139.6650  141.3031  159.9306 C.3     1  UNL1        0.0542
     11 C         138.2095  140.9822  160.0996 C.3     1  UNL1        0.0185
     12 C         137.6378  140.7933  161.4734 C.3     1  UNL1        0.0340
     13 C         138.5215  140.9253  162.6782 C.3     1  UNL1        0.1231
     14 O         137.2154  140.6125  163.3462 O.3     1  UNL1       -0.3812
     15 C         139.9770  141.2462  162.5093 C.3     1  UNL1        0.0340
     16 C         140.5487  141.4351  161.1355 C.3     1  UNL1        0.0185
     17 H         136.5271  140.4970  162.6725 H       1  UNL1        0.2107
     18 C         138.9515  140.9486  164.1151 C.ar    1  UNL1        0.0830
     19 C         139.5473  142.1949  164.6996 C.ar    1  UNL1        0.0172
     20 C         139.9773  142.2181  166.1365 C.ar    1  UNL1        0.0059
     21 C         139.8116  140.9950  166.9888 C.ar    1  UNL1        0.0549
     22 C         139.2158  139.7487  166.4042 C.ar    1  UNL1        0.1015
     23 N         138.7858  139.7255  164.9674 N.ar    1  UNL1       -0.2458
     24 C         140.2416  141.0183  168.4257 C.ar    1  UNL1        0.1638
     25 N         141.0747  142.1543  168.9409 N.ar    1  UNL1       -0.2250
     26 C         141.5047  142.1775  170.3778 C.ar    1  UNL1        0.1022
     27 C         141.1016  141.0648  171.2993 C.ar    1  UNL1        0.0414
     28 C         140.2685  139.9288  170.7841 C.ar    1  UNL1        0.1022
     29 N         139.8385  139.9056  169.3472 N.ar    1  UNL1       -0.2250
     30 C         140.2234  136.3040  154.6856 C.3     1  UNL1        0.1761
     31 O         141.9000  134.3096  153.1984 O.2     1  UNL1       -0.2701
     32 C         141.6367  134.1241  154.6634 C.2     1  UNL1        0.2462
     33 N         140.7984  135.1212  155.4069 N.am    1  UNL1       -0.2931
     34 H         140.6257  134.9994  156.3685 H       1  UNL1        0.1502
     35 C         142.2117  132.9413  155.3848 C.ar    1  UNL1        0.0533
     36 C         141.6000  131.5834  155.2056 C.ar    1  UNL1        0.0045
     37 C         142.1750  130.4007  155.9270 C.ar    1  UNL1        0.0001
     38 C         143.3616  130.5757  156.8277 C.ar    1  UNL1        0.0039
     39 C         143.9732  131.9336  157.0070 C.ar    1  UNL1        0.0716
     40 C         143.3982  133.1164  156.2856 C.ar    1  UNL1        0.0084
     41 C         145.1598  132.1087  157.9077 C.3     1  UNL1        0.4186
     42 F         146.3464  132.2838  158.8085 F       1  UNL1       -0.1659
     43 F         145.4483  130.6397  157.8132 F       1  UNL1       -0.1659
     44 F         144.8713  133.5776  158.0023 F       1  UNL1       -0.1659
@<TRIPOS>BOND
     1    31    32    2
     2    32    33   am
     3    33    30    1
     4    30     1    1
     5     1     2    2
     6     1     3   am
     7     3     4    1
     8     4     5    1
     9     5     6    1
    10     6     8    1
    11    10     8    1
    12    10    11    1
    13    11    12    1
    14    12    13    1
    15    13    14    1
    16    13    18    1
    17    18    19   ar
    18    19    20   ar
    19    20    21   ar
    20    21    24    1
    21    24    25   ar
    22    25    26   ar
    23    26    27   ar
    24    27    28   ar
    25    28    29   ar
    26    21    22   ar
    27    22    23   ar
    28    13    15    1
    29    15    16    1
    30     6     7    1
    31    32    35    1
    32    35    36   ar
    33    36    37   ar
    34    37    38   ar
    35    38    39   ar
    36    39    41    1
    37    41    42    1
    38    41    43    1
    39    41    44    1
    40    39    40   ar
    41     7     3    1
    42    40    35   ar
    43    16    10    1
    44    23    18   ar
    45    29    24   ar
    46    33    34    1
    47     8     9    1
    48    14    17    1
@<TRIPOS>MOLECULE
*****
 44 48 0 0 0
SMALL
GASTEIGER

@<TRIPOS>ATOM
      1 C         138.0187  139.6338  162.1231 C.2     1  UNL1        0.2458
      2 O         137.9901  138.1426  162.2825 O.2     1  UNL1       -0.2730
      3 N         138.3843  140.2399  160.8006 N.am    1  UNL1       -0.2767
      4 C         138.4551  141.7061  160.4920 C.3     1  UNL1        0.0949
      5 C         138.8579  141.8585  159.0552 C.3     1  UNL1        0.0390
      6 C         139.0360  140.4865  158.4757 C.3     1  UNL1        0.0758
      7 C         138.7433  139.4861  159.5544 C.3     1  UNL1        0.1091
      8 N         139.4364  140.1703  157.0652 N.3     1  UNL1       -0.2982
      9 H         139.7369  141.0477  156.6407 H       1  UNL1        0.1232
     10 C         140.5201  139.1675  156.8000 C.3     1  UNL1        0.0542
     11 C         141.9315  139.6276  156.5855 C.3     1  UNL1        0.0185
     12 C         143.0151  138.6248  156.3204 C.3     1  UNL1        0.0340
     13 C         142.6872  137.1620  156.2697 C.3     1  UNL1        0.1231
     14 O         144.1628  137.1075  156.0058 O.3     1  UNL1       -0.3812
     15 C         141.2757  136.7019  156.4842 C.3     1  UNL1        0.0340
     16 C         140.1922  137.7047  156.7494 C.3     1  UNL1        0.0185
     17 H         144.5252  138.0072  156.0086 H       1  UNL1        0.2107
     18 C         142.8718  135.6802  156.1274 C.ar    1  UNL1        0.0830
     19 C         142.6984  135.0280  154.7879 C.ar    1  UNL1        0.0172
     20 C         142.8830  133.5461  154.6457 C.ar    1  UNL1        0.0059
     21 C         143.2412  132.7167  155.8430 C.ar    1  UNL1        0.0549
     22 C         143.4146  133.3689  157.1826 C.ar    1  UNL1        0.1015
     23 N         143.2300  134.8507  157.3248 N.ar    1  UNL1       -0.2458
     24 C         143.4258  131.2348  155.7007 C.ar    1  UNL1        0.1638
     25 N         144.8005  130.6650  155.5125 N.ar    1  UNL1       -0.2250
     26 C         144.9851  129.1832  155.3702 C.ar    1  UNL1        0.1022
     27 C         143.7950  128.2713  155.4162 C.ar    1  UNL1        0.0414
     28 C         142.4203  128.8411  155.6044 C.ar    1  UNL1        0.1022
     29 N         142.2357  130.3230  155.7467 N.ar    1  UNL1       -0.2250
     30 C         137.6816  140.5190  163.2862 C.3     1  UNL1        0.1761
     31 O         137.6885  139.1418  165.9515 O.2     1  UNL1       -0.2701
     32 C         138.7363  140.1673  165.6344 C.2     1  UNL1        0.2462
     33 N         138.7328  140.8559  164.3018 N.am    1  UNL1       -0.2931
     34 H         139.4205  141.5289  164.0938 H       1  UNL1        0.1502
     35 C         139.7876  140.5043  166.6499 C.ar    1  UNL1        0.0533
     36 C         139.6470  140.0219  168.0633 C.ar    1  UNL1        0.0045
     37 C         140.6983  140.3589  169.0788 C.ar    1  UNL1        0.0001
     38 C         141.8901  141.1782  168.6810 C.ar    1  UNL1        0.0039
     39 C         142.0306  141.6606  167.2677 C.ar    1  UNL1        0.0716
     40 C         140.9793  141.3237  166.2522 C.ar    1  UNL1        0.0084
     41 C         143.2224  142.4800  166.8699 C.3     1  UNL1        0.4186
     42 F         144.4142  143.2994  166.4721 F       1  UNL1       -0.1659
     43 F         143.6816  142.5051  168.2977 F       1  UNL1       -0.1659
     44 F         142.7631  142.4549  165.4422 F       1  UNL1       -0.1659
@<TRIPOS>BOND
     1    31    32    2
     2    32    33   am
     3    33    30    1
     4    30     1    1
     5     1     2    2
     6     1     3   am
     7     3     4    1
     8     4     5    1
     9     5     6    1
    10     6     8    1
    11    10     8    1
    12    10    11    1
    13    11    12    1
    14    12    13    1
    15    13    14    1
    16    13    18    1
    17    18    19   ar
    18    19    20   ar
    19    20    21   ar
    20    21    24    1
    21    24    25   ar
    22    25    26   ar
    23    26    27   ar
    24    27    28   ar
    25    28    29   ar
    26    21    22   ar
    27    22    23   ar
    28    13    15    1
    29    15    16    1
    30     6     7    1
    31    32    35    1
    32    35    36   ar
    33    36    37   ar
    34    37    38   ar
    35    38    39   ar
    36    39    41    1
    37    41    42    1
    38    41    43    1
    39    41    44    1
    40    39    40   ar
    41     7     3    1
    42    40    35   ar
    43    16    10    1
    44    23    18   ar
    45    29    24   ar
    46    33    34    1
    47     8     9    1
    48    14    17    1
@<TRIPOS>MOLECULE
*****
 44 48 0 0 0
SMALL
GASTEIGER

@<TRIPOS>ATOM
      1 C         140.7349  145.0399  161.6545 C.2     1  UNL1        0.2458
      2 O         139.5780  145.6578  160.9266 O.2     1  UNL1       -0.2730
      3 N         141.7695  144.2626  160.8958 N.am    1  UNL1       -0.2767
      4 C         142.9751  143.5915  161.4843 C.3     1  UNL1        0.0949
      5 C         143.7308  142.9341  160.3677 C.3     1  UNL1        0.0390
      6 C         142.9922  143.1989  159.0893 C.3     1  UNL1        0.0758
      7 C         141.7801  144.0199  159.4157 C.3     1  UNL1        0.1091
      8 N         143.3951  142.7257  157.7241 N.3     1  UNL1       -0.2982
      9 H         144.4125  142.6532  157.7259 H       1  UNL1        0.1232
     10 C         142.8693  141.4238  157.1960 C.3     1  UNL1        0.0542
     11 C         141.4713  141.3424  156.6584 C.3     1  UNL1        0.0185
     12 C         140.9456  140.0406  156.1304 C.3     1  UNL1        0.0340
     13 C         141.8177  138.8202  156.1401 C.3     1  UNL1        0.1231
     14 O         140.5725  138.2456  155.5324 O.3     1  UNL1       -0.3812
     15 C         143.2156  138.9016  156.6778 C.3     1  UNL1        0.0340
     16 C         143.7414  140.2034  157.2057 C.3     1  UNL1        0.0185
     17 H         139.8980  138.9391  155.4608 H       1  UNL1        0.2107
     18 C         142.2573  137.4003  155.9387 C.ar    1  UNL1        0.0830
     19 C         142.0984  136.7490  154.5969 C.ar    1  UNL1        0.0172
     20 C         142.5381  135.3290  154.3956 C.ar    1  UNL1        0.0059
     21 C         143.1366  134.5604  155.5362 C.ar    1  UNL1        0.0549
     22 C         143.2954  135.2117  156.8781 C.ar    1  UNL1        0.1015
     23 N         142.8558  136.6316  157.0793 N.ar    1  UNL1       -0.2458
     24 C         143.5762  133.1404  155.3349 C.ar    1  UNL1        0.1638
     25 N         144.5341  132.5078  156.3003 N.ar    1  UNL1       -0.2250
     26 C         144.9737  131.0878  156.0989 C.ar    1  UNL1        0.1022
     27 C         144.4553  130.3006  154.9321 C.ar    1  UNL1        0.0414
     28 C         143.4974  130.9332  153.9667 C.ar    1  UNL1        0.1022
     29 N         143.0578  132.3532  154.1681 N.ar    1  UNL1       -0.2250
     30 C         140.8571  145.1992  163.1409 C.3     1  UNL1        0.1761
     31 O         138.8755  144.9668  165.3812 O.2     1  UNL1       -0.2701
     32 C         139.8745  143.8727  165.1471 C.2     1  UNL1        0.2462
     33 N         140.8653  143.9889  164.0270 N.am    1  UNL1       -0.2931
     34 H         141.5210  143.2708  163.8733 H       1  UNL1        0.1502
     35 C         139.8827  142.6623  166.0330 C.ar    1  UNL1        0.0533
     36 C         140.3894  142.7668  167.4410 C.ar    1  UNL1        0.0045
     37 C         140.3977  141.5564  168.3269 C.ar    1  UNL1        0.0001
     38 C         139.8992  140.2415  167.8050 C.ar    1  UNL1        0.0039
     39 C         139.3925  140.1370  166.3970 C.ar    1  UNL1        0.0716
     40 C         139.3843  141.3474  165.5111 C.ar    1  UNL1        0.0084
     41 C         138.8940  138.8220  165.8751 C.3     1  UNL1        0.4186
     42 F         138.3955  137.5071  165.3530 F       1  UNL1       -0.1659
     43 F         137.9719  138.7043  167.0522 F       1  UNL1       -0.1659
     44 F         139.8162  138.9398  164.6979 F       1  UNL1       -0.1659
@<TRIPOS>BOND
     1    31    32    2
     2    32    33   am
     3    33    30    1
     4    30     1    1
     5     1     2    2
     6     1     3   am
     7     3     4    1
     8     4     5    1
     9     5     6    1
    10     6     8    1
    11    10     8    1
    12    10    11    1
    13    11    12    1
    14    12    13    1
    15    13    14    1
    16    13    18    1
    17    18    19   ar
    18    19    20   ar
    19    20    21   ar
    20    21    24    1
    21    24    25   ar
    22    25    26   ar
    23    26    27   ar
    24    27    28   ar
    25    28    29   ar
    26    21    22   ar
    27    22    23   ar
    28    13    15    1
    29    15    16    1
    30     6     7    1
    31    32    35    1
    32    35    36   ar
    33    36    37   ar
    34    37    38   ar
    35    38    39   ar
    36    39    41    1
    37    41    42    1
    38    41    43    1
    39    41    44    1
    40    39    40   ar
    41     7     3    1
    42    40    35   ar
    43    16    10    1
    44    23    18   ar
    45    29    24   ar
    46    33    34    1
    47     8     9    1
    48    14    17    1
