@<TRIPOS>MOLECULE
*****
 37 40 0 0 0
SMALL
GASTEIGER

@<TRIPOS>ATOM
      1 C         142.9536  138.0825  161.0077 C.ar    1  UNL1        0.0527
      2 C         144.1342  138.9572  161.3096 C.ar    1  UNL1        0.0466
      3 C         144.1791  139.7417  162.5874 C.ar    1  UNL1        0.1684
      4 F         145.3597  140.6164  162.8893 F       1  UNL1       -0.2018
      5 C         143.0434  139.6514  163.5632 C.ar    1  UNL1        0.1652
      6 F         143.0884  140.4359  164.8409 F       1  UNL1       -0.2021
      7 C         141.8629  138.7767  163.2612 C.ar    1  UNL1        0.0288
      8 C         141.8180  137.9923  161.9835 C.ar    1  UNL1        0.0146
      9 C         140.7273  138.6865  164.2370 C.3     1  UNL1        0.1085
     10 C         141.5643  137.5327  164.7041 C.3     1  UNL1        0.0291
     11 C         140.2846  139.8716  163.4311 C.3     1  UNL1        0.0425
     12 C         138.9970  140.5657  163.7631 C.3     1  UNL1        0.0829
     13 S         138.1521  140.0748  164.9012 S.3     1  UNL1       -0.0770
     14 C         138.5948  138.8897  165.7071 C.2     1  UNL1        0.1484
     15 N         137.7499  138.3988  166.8451 N.pl3   1  UNL1       -0.3380
     16 N         139.8824  138.1956  165.3750 N.2     1  UNL1       -0.2508
     17 H         136.9048  138.8544  167.0631 H       1  UNL1        0.1442
     18 H         138.0404  137.6210  167.3741 H       1  UNL1        0.1442
     19 C         138.5544  141.7509  162.9572 C.ar    1  UNL1        0.0376
     20 C         138.5476  143.1781  163.4186 C.ar    1  UNL1        0.0974
     21 C         138.9822  143.6708  164.7671 C.3     1  UNL1        0.0553
     22 N         138.0298  144.0261  162.2949 N.ar    1  UNL1       -0.0821
     23 O         137.7165  143.1230  161.1389 O.2     1  UNL1       -0.3584
     24 C         138.0408  141.7167  161.5483 C.ar    1  UNL1        0.1512
     25 C         137.8797  140.4917  160.6979 C.3     1  UNL1        0.0750
     26 C         142.4925  137.9668  158.4535 C.2     1  UNL1        0.2688
     27 O         142.1213  139.4201  158.4548 O.2     1  UNL1       -0.2681
     28 N         142.9087  137.2980  159.7300 N.am    1  UNL1       -0.2790
     29 H         143.1524  136.3441  159.7292 H       1  UNL1        0.1552
     30 C         142.3578  135.6134  154.6203 C.ar    1  UNL1        0.2449
     31 C         143.6739  135.8901  155.2846 C.ar    1  UNL1        0.1565
     32 N         143.7188  136.6746  156.5624 N.ar    1  UNL1       -0.2328
     33 C         142.4476  137.1823  157.1758 C.ar    1  UNL1        0.1541
     34 C         141.1316  136.9056  156.5115 C.ar    1  UNL1        0.1258
     35 N         141.0867  136.1211  155.2338 N.ar    1  UNL1       -0.2071
     36 C         142.0622  133.3505  153.3787 C.3     1  UNL1        0.2543
     37 O         142.3129  134.8289  153.3426 O.3     1  UNL1       -0.4551
@<TRIPOS>BOND
     1    36    37    1
     2    37    30    1
     3    30    31   ar
     4    31    32   ar
     5    32    33   ar
     6    33    26    1
     7    26    27    2
     8    26    28   am
     9    28     1    1
    10     1     2   ar
    11     2     3   ar
    12     3     4    1
    13     3     5   ar
    14     5     6    1
    15     5     7   ar
    16     7     9    1
    17     9    10    1
    18     9    11    1
    19    11    12    1
    20    12    19    1
    21    19    20   ar
    22    20    21    1
    23    20    22   ar
    24    22    23   ar
    25    23    24   ar
    26    24    25    1
    27    12    13    1
    28    13    14    1
    29    14    15    1
    30    14    16    2
    31     7     8   ar
    32    33    34   ar
    33    34    35   ar
    34    35    30   ar
    35     8     1   ar
    36    16     9    1
    37    24    19   ar
    38    28    29    1
    39    15    17    1
    40    15    18    1
@<TRIPOS>MOLECULE
*****
 37 40 0 0 0
SMALL
GASTEIGER

@<TRIPOS>ATOM
      1 C         144.2774  141.7004  163.1513 C.ar    1  UNL1        0.0527
      2 C         145.0239  142.7185  163.9615 C.ar    1  UNL1        0.0466
      3 C         144.5741  143.0444  165.3549 C.ar    1  UNL1        0.1684
      4 F         145.3205  144.0624  166.1651 F       1  UNL1       -0.2018
      5 C         143.3780  142.3521  165.9381 C.ar    1  UNL1        0.1652
      6 F         142.9283  142.6780  167.3315 F       1  UNL1       -0.2021
      7 C         142.6316  141.3341  165.1280 C.ar    1  UNL1        0.0288
      8 C         143.0813  141.0082  163.7345 C.ar    1  UNL1        0.0146
      9 C         141.4355  140.6419  165.7112 C.3     1  UNL1        0.1085
     10 C         142.5312  139.9470  166.4639 C.3     1  UNL1        0.0291
     11 C         140.7551  141.5771  164.7560 C.3     1  UNL1        0.0425
     12 C         139.2592  141.5788  164.6454 C.3     1  UNL1        0.0829
     13 S         138.4437  140.6453  165.4900 S.3     1  UNL1       -0.0770
     14 C         139.1241  139.7100  166.4453 C.2     1  UNL1        0.1484
     15 N         138.3085  138.7765  167.2899 N.pl3   1  UNL1       -0.3380
     16 N         140.6200  139.7084  166.5558 N.2     1  UNL1       -0.2508
     17 H         137.3267  138.7776  167.2173 H       1  UNL1        0.1442
     18 H         138.7550  138.1627  167.9169 H       1  UNL1        0.1442
     19 C         138.5788  142.5140  163.6902 C.ar    1  UNL1        0.0376
     20 C         138.2744  143.9614  163.9396 C.ar    1  UNL1        0.0974
     21 C         138.5969  144.7278  165.1881 C.3     1  UNL1        0.0553
     22 N         137.5908  144.5080  162.7214 N.ar    1  UNL1       -0.0821
     23 O         137.4728  143.3983  161.7190 O.2     1  UNL1       -0.3584
     24 C         138.0834  142.1659  162.3178 C.ar    1  UNL1        0.1512
     25 C         138.1814  140.8216  161.6597 C.3     1  UNL1        0.0750
     26 C         143.9667  141.9084  160.5803 C.2     1  UNL1        0.2688
     27 O         142.7566  142.7680  160.7961 O.2     1  UNL1       -0.2681
     28 N         144.7271  141.3746  161.7579 N.am    1  UNL1       -0.2790
     29 H         145.5214  140.8104  161.6163 H       1  UNL1        0.1552
     30 C         145.3158  140.9308  156.4001 C.ar    1  UNL1        0.2449
     31 C         145.7414  142.2169  157.0440 C.ar    1  UNL1        0.1565
     32 N         145.2917  142.5428  158.4374 N.ar    1  UNL1       -0.2328
     33 C         144.4164  141.5825  159.1869 C.ar    1  UNL1        0.1541
     34 C         143.9909  140.2964  158.5429 C.ar    1  UNL1        0.1258
     35 N         144.4406  139.9705  157.1495 N.ar    1  UNL1       -0.2071
     36 C         144.9644  141.0780  153.8301 C.3     1  UNL1        0.2543
     37 O         145.7655  140.6050  155.0067 O.3     1  UNL1       -0.4551
@<TRIPOS>BOND
     1    36    37    1
     2    37    30    1
     3    30    31   ar
     4    31    32   ar
     5    32    33   ar
     6    33    26    1
     7    26    27    2
     8    26    28   am
     9    28     1    1
    10     1     2   ar
    11     2     3   ar
    12     3     4    1
    13     3     5   ar
    14     5     6    1
    15     5     7   ar
    16     7     9    1
    17     9    10    1
    18     9    11    1
    19    11    12    1
    20    12    19    1
    21    19    20   ar
    22    20    21    1
    23    20    22   ar
    24    22    23   ar
    25    23    24   ar
    26    24    25    1
    27    12    13    1
    28    13    14    1
    29    14    15    1
    30    14    16    2
    31     7     8   ar
    32    33    34   ar
    33    34    35   ar
    34    35    30   ar
    35     8     1   ar
    36    16     9    1
    37    24    19   ar
    38    28    29    1
    39    15    17    1
    40    15    18    1
@<TRIPOS>MOLECULE
*****
 37 40 0 0 0
SMALL
GASTEIGER

@<TRIPOS>ATOM
      1 C         142.7463  138.8389  161.6379 C.ar    1  UNL1        0.0527
      2 C         143.9605  138.4859  162.4449 C.ar    1  UNL1        0.0466
      3 C         144.3858  139.3647  163.5836 C.ar    1  UNL1        0.1684
      4 F         145.5999  139.0117  164.3906 F       1  UNL1       -0.2018
      5 C         143.5968  140.5966  163.9155 C.ar    1  UNL1        0.1652
      6 F         144.0221  141.4754  165.0543 F       1  UNL1       -0.2021
      7 C         142.3827  140.9496  163.1086 C.ar    1  UNL1        0.0288
      8 C         141.9574  140.0708  161.9698 C.ar    1  UNL1        0.0146
      9 C         141.5938  142.1814  163.4404 C.3     1  UNL1        0.1085
     10 C         142.3200  142.6588  162.2179 C.3     1  UNL1        0.0291
     11 C         141.1414  141.2764  164.5477 C.3     1  UNL1        0.0425
     12 C         140.1524  141.7689  165.5623 C.3     1  UNL1        0.0829
     13 S         139.6158  143.1665  165.4696 S.3     1  UNL1       -0.0770
     14 C         140.0681  144.0716  164.3622 C.2     1  UNL1        0.1484
     15 N         139.5314  145.4693  164.2695 N.pl3   1  UNL1       -0.3380
     16 N         141.0571  143.5791  163.3477 N.2     1  UNL1       -0.2508
     17 H         138.8823  145.7925  164.9354 H       1  UNL1        0.1442
     18 H         139.8283  146.0634  163.5427 H       1  UNL1        0.1442
     19 C         139.7001  140.8637  166.6696 C.ar    1  UNL1        0.0376
     20 C         140.0810  140.9813  168.1156 C.ar    1  UNL1        0.0974
     21 C         140.9811  142.0247  168.7083 C.3     1  UNL1        0.0553
     22 N         139.4037  139.8723  168.8650 N.ar    1  UNL1       -0.0821
     23 O         138.6042  139.0693  167.8821 O.2     1  UNL1       -0.3584
     24 C         138.7875  139.6821  166.5252 C.ar    1  UNL1        0.1512
     25 C         138.1669  139.1981  165.2483 C.3     1  UNL1        0.0750
     26 C         142.8556  138.2085  159.1199 C.2     1  UNL1        0.2688
     27 O         143.8154  139.3358  158.8794 O.2     1  UNL1       -0.2681
     28 N         142.3210  137.9601  160.4992 N.am    1  UNL1       -0.2790
     29 H         141.6910  137.2202  160.6570 H       1  UNL1        0.1552
     30 C         141.5798  135.5721  155.7036 C.ar    1  UNL1        0.2449
     31 C         142.8199  135.2445  156.4812 C.ar    1  UNL1        0.1565
     32 N         143.2452  136.1233  157.6199 N.ar    1  UNL1       -0.2328
     33 C         142.4303  137.3297  157.9811 C.ar    1  UNL1        0.1541
     34 C         141.1902  137.6573  157.2035 C.ar    1  UNL1        0.1258
     35 N         140.7649  136.7785  156.0647 N.ar    1  UNL1       -0.2071
     36 C         141.5264  133.2401  154.5595 C.3     1  UNL1        0.2543
     37 O         141.1546  134.6932  154.5648 O.3     1  UNL1       -0.4551
@<TRIPOS>BOND
     1    36    37    1
     2    37    30    1
     3    30    31   ar
     4    31    32   ar
     5    32    33   ar
     6    33    26    1
     7    26    27    2
     8    26    28   am
     9    28     1    1
    10     1     2   ar
    11     2     3   ar
    12     3     4    1
    13     3     5   ar
    14     5     6    1
    15     5     7   ar
    16     7     9    1
    17     9    10    1
    18     9    11    1
    19    11    12    1
    20    12    19    1
    21    19    20   ar
    22    20    21    1
    23    20    22   ar
    24    22    23   ar
    25    23    24   ar
    26    24    25    1
    27    12    13    1
    28    13    14    1
    29    14    15    1
    30    14    16    2
    31     7     8   ar
    32    33    34   ar
    33    34    35   ar
    34    35    30   ar
    35     8     1   ar
    36    16     9    1
    37    24    19   ar
    38    28    29    1
    39    15    17    1
    40    15    18    1
@<TRIPOS>MOLECULE
*****
 37 40 0 0 0
SMALL
GASTEIGER

@<TRIPOS>ATOM
      1 C         142.2633  144.1547  163.3748 C.ar    1  UNL1        0.0527
      2 C         143.6050  144.4207  163.9905 C.ar    1  UNL1        0.0466
      3 C         143.9918  143.7387  165.2693 C.ar    1  UNL1        0.1684
      4 F         145.3334  144.0046  165.8851 F       1  UNL1       -0.2018
      5 C         143.0368  142.7907  165.9323 C.ar    1  UNL1        0.1652
      6 F         143.4236  142.1087  167.2111 F       1  UNL1       -0.2021
      7 C         141.6952  142.5248  165.3165 C.ar    1  UNL1        0.0288
      8 C         141.3084  143.2068  164.0378 C.ar    1  UNL1        0.0146
      9 C         140.7403  141.5769  165.9795 C.3     1  UNL1        0.1085
     10 C         140.8094  142.6504  167.0248 C.3     1  UNL1        0.0291
     11 C         141.0027  140.8324  164.7040 C.3     1  UNL1        0.0425
     12 C         140.3343  139.5130  164.4546 C.3     1  UNL1        0.0829
     13 S         139.4035  138.9379  165.4806 S.3     1  UNL1       -0.0770
     14 C         139.1410  139.6823  166.7561 C.2     1  UNL1        0.1484
     15 N         138.2101  139.1072  167.7822 N.pl3   1  UNL1       -0.3380
     16 N         139.8094  141.0018  167.0056 N.2     1  UNL1       -0.2508
     17 H         137.7714  138.2412  167.6184 H       1  UNL1        0.1442
     18 H         138.0378  139.5958  168.6193 H       1  UNL1        0.1442
     19 C         140.5968  138.7686  163.1790 C.ar    1  UNL1        0.0376
     20 C         141.9350  138.2963  162.6932 C.ar    1  UNL1        0.0974
     21 C         143.2458  138.4856  163.3975 C.3     1  UNL1        0.0553
     22 N         141.7324  137.6016  161.3792 N.ar    1  UNL1       -0.0821
     23 O         140.2689  137.6445  161.0531 O.2     1  UNL1       -0.3584
     24 C         139.5671  138.3658  162.1655 C.ar    1  UNL1        0.1512
     25 C         138.0942  138.6365  162.2494 C.3     1  UNL1        0.0750
     26 C         141.9790  144.1010  160.7929 C.2     1  UNL1        0.2688
     27 O         142.4682  142.6833  160.7685 O.2     1  UNL1       -0.2681
     28 N         141.8765  144.8367  162.0960 N.am    1  UNL1       -0.2790
     29 H         141.5554  145.7672  162.1120 H       1  UNL1        0.1552
     30 C         140.8187  146.1470  156.9565 C.ar    1  UNL1        0.2449
     31 C         142.1682  145.5053  157.0859 C.ar    1  UNL1        0.1565
     32 N         142.5550  144.8233  158.3646 N.ar    1  UNL1       -0.2328
     33 C         141.5922  144.7830  159.5141 C.ar    1  UNL1        0.1541
     34 C         140.2426  145.4247  159.3848 C.ar    1  UNL1        0.1258
     35 N         139.8558  146.1067  158.1060 N.ar    1  UNL1       -0.2071
     36 C         138.9891  147.1221  155.3907 C.3     1  UNL1        0.2543
     37 O         140.4319  146.8291  155.6778 O.3     1  UNL1       -0.4551
@<TRIPOS>BOND
     1    36    37    1
     2    37    30    1
     3    30    31   ar
     4    31    32   ar
     5    32    33   ar
     6    33    26    1
     7    26    27    2
     8    26    28   am
     9    28     1    1
    10     1     2   ar
    11     2     3   ar
    12     3     4    1
    13     3     5   ar
    14     5     6    1
    15     5     7   ar
    16     7     9    1
    17     9    10    1
    18     9    11    1
    19    11    12    1
    20    12    19    1
    21    19    20   ar
    22    20    21    1
    23    20    22   ar
    24    22    23   ar
    25    23    24   ar
    26    24    25    1
    27    12    13    1
    28    13    14    1
    29    14    15    1
    30    14    16    2
    31     7     8   ar
    32    33    34   ar
    33    34    35   ar
    34    35    30   ar
    35     8     1   ar
    36    16     9    1
    37    24    19   ar
    38    28    29    1
    39    15    17    1
    40    15    18    1
@<TRIPOS>MOLECULE
*****
 37 40 0 0 0
SMALL
GASTEIGER

@<TRIPOS>ATOM
      1 C         141.2258  144.9012  161.6060 C.ar    1  UNL1        0.0527
      2 C         140.2477  145.4033  162.6265 C.ar    1  UNL1        0.0466
      3 C         140.2085  144.7882  163.9940 C.ar    1  UNL1        0.1684
      4 F         139.2305  145.2903  165.0144 F       1  UNL1       -0.2018
      5 C         141.1473  143.6709  164.3410 C.ar    1  UNL1        0.1652
      6 F         141.1081  143.0558  165.7085 F       1  UNL1       -0.2021
      7 C         142.1253  143.1688  163.3206 C.ar    1  UNL1        0.0288
      8 C         142.1646  143.7840  161.9531 C.ar    1  UNL1        0.0146
      9 C         143.0641  142.0516  163.6676 C.3     1  UNL1        0.1085
     10 C         143.9160  143.2307  164.0336 C.3     1  UNL1        0.0291
     11 C         141.8863  141.2604  163.1812 C.3     1  UNL1        0.0425
     12 C         141.9430  139.7616  163.1689 C.3     1  UNL1        0.0829
     13 S         143.1776  139.0538  163.6431 S.3     1  UNL1       -0.0770
     14 C         144.3555  139.8450  164.1295 C.2     1  UNL1        0.1484
     15 N         145.5901  139.1373  164.6037 N.pl3   1  UNL1       -0.3380
     16 N         144.2987  141.3439  164.1418 N.2     1  UNL1       -0.2508
     17 H         145.6274  138.1535  164.5956 H       1  UNL1        0.1442
     18 H         146.3632  139.6565  164.9230 H       1  UNL1        0.1442
     19 C         140.7651  138.9704  162.6825 C.ar    1  UNL1        0.0376
     20 C         139.5694  138.5774  163.4984 C.ar    1  UNL1        0.0974
     21 C         139.3416  138.9065  164.9440 C.3     1  UNL1        0.0553
     22 N         138.6414  137.7974  162.6149 N.ar    1  UNL1       -0.0821
     23 O         139.2637  137.7084  161.2529 O.2     1  UNL1       -0.3584
     24 C         140.5762  138.4333  161.2947 C.ar    1  UNL1        0.1512
     25 C         141.5319  138.5931  160.1498 C.3     1  UNL1        0.0750
     26 C         140.3276  145.0335  159.1717 C.2     1  UNL1        0.2688
     27 O         139.3509  143.9356  159.4725 O.2     1  UNL1       -0.2681
     28 N         141.2651  145.5163  160.2385 N.am    1  UNL1       -0.2790
     29 H         141.9062  146.2369  160.0411 H       1  UNL1        0.1552
     30 C         140.4454  146.8789  155.0692 C.ar    1  UNL1        0.2449
     31 C         139.4145  147.3254  156.0631 C.ar    1  UNL1        0.1565
     32 N         139.3753  146.7103  157.4306 N.ar    1  UNL1       -0.2328
     33 C         140.3669  145.6486  157.8042 C.ar    1  UNL1        0.1541
     34 C         141.3977  145.2021  156.8103 C.ar    1  UNL1        0.1258
     35 N         141.4370  145.8173  155.4428 N.ar    1  UNL1       -0.2071
     36 C         140.2072  148.9580  153.5296 C.3     1  UNL1        0.2543
     37 O         140.4846  147.4940  153.7017 O.3     1  UNL1       -0.4551
@<TRIPOS>BOND
     1    36    37    1
     2    37    30    1
     3    30    31   ar
     4    31    32   ar
     5    32    33   ar
     6    33    26    1
     7    26    27    2
     8    26    28   am
     9    28     1    1
    10     1     2   ar
    11     2     3   ar
    12     3     4    1
    13     3     5   ar
    14     5     6    1
    15     5     7   ar
    16     7     9    1
    17     9    10    1
    18     9    11    1
    19    11    12    1
    20    12    19    1
    21    19    20   ar
    22    20    21    1
    23    20    22   ar
    24    22    23   ar
    25    23    24   ar
    26    24    25    1
    27    12    13    1
    28    13    14    1
    29    14    15    1
    30    14    16    2
    31     7     8   ar
    32    33    34   ar
    33    34    35   ar
    34    35    30   ar
    35     8     1   ar
    36    16     9    1
    37    24    19   ar
    38    28    29    1
    39    15    17    1
    40    15    18    1
@<TRIPOS>MOLECULE
*****
 37 40 0 0 0
SMALL
GASTEIGER

@<TRIPOS>ATOM
      1 C         139.7448  143.8868  162.2289 C.ar    1  UNL1        0.0527
      2 C         139.0341  144.7362  163.2407 C.ar    1  UNL1        0.0466
      3 C         139.2955  144.5362  164.7041 C.ar    1  UNL1        0.1684
      4 F         138.5849  145.3855  165.7158 F       1  UNL1       -0.2018
      5 C         140.2675  143.4867  165.1558 C.ar    1  UNL1        0.1652
      6 F         140.5288  143.2867  166.6193 F       1  UNL1       -0.2021
      7 C         140.9781  142.6374  164.1441 C.ar    1  UNL1        0.0288
      8 C         140.7168  142.8374  162.6807 C.ar    1  UNL1        0.0146
      9 C         141.9500  141.5880  164.5959 C.3     1  UNL1        0.1085
     10 C         142.8699  142.4733  163.8085 C.3     1  UNL1        0.0291
     11 C         140.6927  141.0671  165.2264 C.3     1  UNL1        0.0425
     12 C         140.7267  139.8043  166.0352 C.3     1  UNL1        0.0829
     13 S         142.0181  139.0624  166.2135 S.3     1  UNL1       -0.0770
     14 C         143.2755  139.5833  165.5829 C.2     1  UNL1        0.1484
     15 N         144.5669  138.8414  165.7612 N.pl3   1  UNL1       -0.3380
     16 N         143.2414  140.8461  164.7741 N.2     1  UNL1       -0.2508
     17 H         144.5892  138.0126  166.2921 H       1  UNL1        0.1442
     18 H         145.3922  139.1833  165.3474 H       1  UNL1        0.1442
     19 C         139.4692  139.2834  166.6657 C.ar    1  UNL1        0.0376
     20 C         138.5134  138.3056  166.0492 C.ar    1  UNL1        0.0974
     21 C         138.6471  137.6770  164.6938 C.3     1  UNL1        0.0553
     22 N         137.4003  138.0667  167.0259 N.ar    1  UNL1       -0.0821
     23 O         137.6683  138.8969  168.2462 O.2     1  UNL1       -0.3584
     24 C         138.9470  139.6489  168.0235 C.ar    1  UNL1        0.1512
     25 C         139.5903  140.5994  168.9892 C.3     1  UNL1        0.0750
     26 C         140.5703  144.6108  159.8743 C.2     1  UNL1        0.2688
     27 O         141.9185  144.9347  160.4466 O.2     1  UNL1       -0.2681
     28 N         139.4835  144.0868  160.7655 N.am    1  UNL1       -0.2790
     29 H         138.5986  143.8742  160.3899 H       1  UNL1        0.1552
     30 C         139.7863  145.2109  155.4839 C.ar    1  UNL1        0.2449
     31 C         140.6075  146.2108  156.2427 C.ar    1  UNL1        0.1565
     32 N         140.8689  146.0108  157.7061 N.ar    1  UNL1       -0.2328
     33 C         140.3090  144.8108  158.4108 C.ar    1  UNL1        0.1541
     34 C         139.4878  143.8109  157.6521 C.ar    1  UNL1        0.1258
     35 N         139.2265  144.0110  156.1886 N.ar    1  UNL1       -0.2071
     36 C         140.6727  145.5863  153.0708 C.3     1  UNL1        0.2543
     37 O         139.5250  145.4109  154.0205 O.3     1  UNL1       -0.4551
@<TRIPOS>BOND
     1    36    37    1
     2    37    30    1
     3    30    31   ar
     4    31    32   ar
     5    32    33   ar
     6    33    26    1
     7    26    27    2
     8    26    28   am
     9    28     1    1
    10     1     2   ar
    11     2     3   ar
    12     3     4    1
    13     3     5   ar
    14     5     6    1
    15     5     7   ar
    16     7     9    1
    17     9    10    1
    18     9    11    1
    19    11    12    1
    20    12    19    1
    21    19    20   ar
    22    20    21    1
    23    20    22   ar
    24    22    23   ar
    25    23    24   ar
    26    24    25    1
    27    12    13    1
    28    13    14    1
    29    14    15    1
    30    14    16    2
    31     7     8   ar
    32    33    34   ar
    33    34    35   ar
    34    35    30   ar
    35     8     1   ar
    36    16     9    1
    37    24    19   ar
    38    28    29    1
    39    15    17    1
    40    15    18    1
@<TRIPOS>MOLECULE
*****
 37 40 0 0 0
SMALL
GASTEIGER

@<TRIPOS>ATOM
      1 C         140.4422  142.6050  161.5113 C.ar    1  UNL1        0.0527
      2 C         140.0556  144.0418  161.7019 C.ar    1  UNL1        0.0466
      3 C         139.2473  144.4486  162.8983 C.ar    1  UNL1        0.1684
      4 F         138.8607  145.8853  163.0889 F       1  UNL1       -0.2018
      5 C         138.8257  143.4186  163.9040 C.ar    1  UNL1        0.1652
      6 F         138.0175  143.8255  165.1004 F       1  UNL1       -0.2021
      7 C         139.2123  141.9819  163.7134 C.ar    1  UNL1        0.0288
      8 C         140.0206  141.5751  162.5171 C.ar    1  UNL1        0.0146
      9 C         138.7907  140.9521  164.7191 C.3     1  UNL1        0.1085
     10 C         137.8100  140.6614  163.6220 C.3     1  UNL1        0.0291
     11 C         139.9178  141.6003  165.4671 C.3     1  UNL1        0.0425
     12 C         140.2827  141.1178  166.8396 C.3     1  UNL1        0.0829
     13 S         139.5205  139.9869  167.4643 S.3     1  UNL1       -0.0770
     14 C         138.3934  139.3387  166.7164 C.2     1  UNL1        0.1484
     15 N         137.6312  138.2078  167.3412 N.pl3   1  UNL1       -0.3380
     16 N         138.0285  139.8213  165.3439 N.2     1  UNL1       -0.2508
     17 H         137.8707  137.8911  168.2421 H       1  UNL1        0.1442
     18 H         136.8914  137.7824  166.8503 H       1  UNL1        0.1442
     19 C         141.4099  141.7660  167.5875 C.ar    1  UNL1        0.0376
     20 C         141.3189  142.3991  168.9443 C.ar    1  UNL1        0.0974
     21 C         140.0847  142.4950  169.7915 C.3     1  UNL1        0.0553
     22 N         142.6787  142.9194  169.3052 N.ar    1  UNL1       -0.0821
     23 O         143.6101  142.6079  168.1715 O.2     1  UNL1       -0.3584
     24 C         142.8259  141.8950  167.1098 C.ar    1  UNL1        0.1512
     25 C         143.3635  141.3985  165.8005 C.3     1  UNL1        0.0750
     26 C         142.7290  141.9829  160.4467 C.2     1  UNL1        0.2688
     27 O         143.3993  142.1745  161.7748 O.2     1  UNL1       -0.2681
     28 N         141.2504  142.1982  160.3150 N.am    1  UNL1       -0.2790
     29 H         140.8104  142.0724  159.4433 H       1  UNL1        0.1552
     30 C         145.1536  140.7624  156.8576 C.ar    1  UNL1        0.2449
     31 C         145.2259  142.1711  157.3677 C.ar    1  UNL1        0.1565
     32 N         144.4177  142.5780  158.5641 N.ar    1  UNL1       -0.2328
     33 C         143.5372  141.5761  159.2503 C.ar    1  UNL1        0.1541
     34 C         143.4649  140.1674  158.7402 C.ar    1  UNL1        0.1258
     35 N         144.2732  139.7605  157.5438 N.ar    1  UNL1       -0.2071
     36 C         145.3284  139.5476  154.5677 C.3     1  UNL1        0.2543
     37 O         145.9619  140.3556  155.6613 O.3     1  UNL1       -0.4551
@<TRIPOS>BOND
     1    36    37    1
     2    37    30    1
     3    30    31   ar
     4    31    32   ar
     5    32    33   ar
     6    33    26    1
     7    26    27    2
     8    26    28   am
     9    28     1    1
    10     1     2   ar
    11     2     3   ar
    12     3     4    1
    13     3     5   ar
    14     5     6    1
    15     5     7   ar
    16     7     9    1
    17     9    10    1
    18     9    11    1
    19    11    12    1
    20    12    19    1
    21    19    20   ar
    22    20    21    1
    23    20    22   ar
    24    22    23   ar
    25    23    24   ar
    26    24    25    1
    27    12    13    1
    28    13    14    1
    29    14    15    1
    30    14    16    2
    31     7     8   ar
    32    33    34   ar
    33    34    35   ar
    34    35    30   ar
    35     8     1   ar
    36    16     9    1
    37    24    19   ar
    38    28    29    1
    39    15    17    1
    40    15    18    1
@<TRIPOS>MOLECULE
*****
 37 40 0 0 0
SMALL
GASTEIGER

@<TRIPOS>ATOM
      1 C         141.6260  138.3434  161.8629 C.ar    1  UNL1        0.0527
      2 C         140.5357  137.7039  162.6705 C.ar    1  UNL1        0.0466
      3 C         140.2247  138.2130  164.0468 C.ar    1  UNL1        0.1684
      4 F         139.1344  137.5735  164.8544 F       1  UNL1       -0.2018
      5 C         141.0041  139.3616  164.6155 C.ar    1  UNL1        0.1652
      6 F         140.6932  139.8707  165.9917 F       1  UNL1       -0.2021
      7 C         142.0944  140.0011  163.8078 C.ar    1  UNL1        0.0288
      8 C         142.4054  139.4920  162.4316 C.ar    1  UNL1        0.0146
      9 C         142.8737  141.1496  164.3765 C.3     1  UNL1        0.1085
     10 C         143.6395  140.0002  164.9617 C.3     1  UNL1        0.0291
     11 C         141.8374  141.9003  163.5939 C.3     1  UNL1        0.0425
     12 C         141.8463  143.4001  163.5831 C.3     1  UNL1        0.0829
     13 S         142.8916  144.1495  164.3550 S.3     1  UNL1       -0.0770
     14 C         143.9280  143.3989  165.1377 C.2     1  UNL1        0.1484
     15 N         144.9732  144.1483  165.9096 N.pl3   1  UNL1       -0.3380
     16 N         143.9190  141.8990  165.1484 N.2     1  UNL1       -0.2508
     17 H         144.9791  145.1328  165.9025 H       1  UNL1        0.1442
     18 H         145.6534  143.6557  166.4233 H       1  UNL1        0.1442
     19 C         140.8099  144.1507  162.8004 C.ar    1  UNL1        0.0376
     20 C         140.8485  144.4297  161.3271 C.ar    1  UNL1        0.0974
     21 C         141.9303  144.0070  160.3778 C.3     1  UNL1        0.0553
     22 N         139.6154  145.2055  160.9698 N.ar    1  UNL1       -0.0821
     23 O         138.8147  145.4060  162.2223 O.2     1  UNL1       -0.3584
     24 C         139.5530  144.7541  163.3537 C.ar    1  UNL1        0.1512
     25 C         139.1118  144.7129  164.7867 C.3     1  UNL1        0.0750
     26 C         141.3333  138.5010  159.2862 C.2     1  UNL1        0.2688
     27 O         140.4186  139.6768  159.4621 O.2     1  UNL1       -0.2681
     28 N         141.9370  137.8344  160.4866 N.am    1  UNL1       -0.2790
     29 H         142.5373  137.0627  160.3712 H       1  UNL1        0.1552
     30 C         142.2662  136.9738  155.1574 C.ar    1  UNL1        0.2449
     31 C         143.3801  137.2646  156.1189 C.ar    1  UNL1        0.1565
     32 N         143.0691  137.7736  157.4952 N.ar    1  UNL1       -0.2328
     33 C         141.6442  137.9919  157.9099 C.ar    1  UNL1        0.1541
     34 C         140.5303  137.7012  156.9484 C.ar    1  UNL1        0.1258
     35 N         140.8413  137.1921  155.5721 N.ar    1  UNL1       -0.2071
     36 C         141.5141  136.4664  152.7229 C.3     1  UNL1        0.2543
     37 O         142.5771  136.4647  153.7811 O.3     1  UNL1       -0.4551
@<TRIPOS>BOND
     1    36    37    1
     2    37    30    1
     3    30    31   ar
     4    31    32   ar
     5    32    33   ar
     6    33    26    1
     7    26    27    2
     8    26    28   am
     9    28     1    1
    10     1     2   ar
    11     2     3   ar
    12     3     4    1
    13     3     5   ar
    14     5     6    1
    15     5     7   ar
    16     7     9    1
    17     9    10    1
    18     9    11    1
    19    11    12    1
    20    12    19    1
    21    19    20   ar
    22    20    21    1
    23    20    22   ar
    24    22    23   ar
    25    23    24   ar
    26    24    25    1
    27    12    13    1
    28    13    14    1
    29    14    15    1
    30    14    16    2
    31     7     8   ar
    32    33    34   ar
    33    34    35   ar
    34    35    30   ar
    35     8     1   ar
    36    16     9    1
    37    24    19   ar
    38    28    29    1
    39    15    17    1
    40    15    18    1
@<TRIPOS>MOLECULE
*****
 37 40 0 0 0
SMALL
GASTEIGER

@<TRIPOS>ATOM
      1 C         144.0293  140.3988  162.2023 C.ar    1  UNL1        0.0527
      2 C         145.0339  141.2952  162.8636 C.ar    1  UNL1        0.0466
      3 C         144.8243  141.7395  164.2809 C.ar    1  UNL1        0.1684
      4 F         145.8288  142.6360  164.9421 F       1  UNL1       -0.2018
      5 C         143.6102  141.2873  165.0369 C.ar    1  UNL1        0.1652
      6 F         143.4007  141.7316  166.4542 F       1  UNL1       -0.2021
      7 C         142.6057  140.3909  164.3756 C.ar    1  UNL1        0.0288
      8 C         142.8153  139.9466  162.9583 C.ar    1  UNL1        0.0146
      9 C         141.3917  139.9387  165.1316 C.3     1  UNL1        0.1085
     10 C         142.4283  139.0448  165.7450 C.3     1  UNL1        0.0291
     11 C         140.7765  140.9896  164.2557 C.3     1  UNL1        0.0425
     12 C         139.3075  141.2779  164.3488 C.3     1  UNL1        0.0829
     13 S         138.4535  140.5153  165.3179 S.3     1  UNL1       -0.0770
     14 C         139.0686  139.4644  166.1938 C.2     1  UNL1        0.1484
     15 N         138.2145  138.7018  167.1629 N.pl3   1  UNL1       -0.3380
     16 N         140.5376  139.1761  166.1007 N.2     1  UNL1       -0.2508
     17 H         137.2503  138.8910  167.2240 H       1  UNL1        0.1442
     18 H         138.6182  138.0120  167.7378 H       1  UNL1        0.1442
     19 C         138.6924  142.3288  163.4729 C.ar    1  UNL1        0.0376
     20 C         138.1215  142.1112  162.1030 C.ar    1  UNL1        0.0974
     21 C         138.0653  140.8046  161.3685 C.3     1  UNL1        0.0553
     22 N         137.6165  143.4298  161.5965 N.ar    1  UNL1       -0.0821
     23 O         137.8753  144.4623  162.6534 O.2     1  UNL1       -0.3584
     24 C         138.5403  143.7817  163.8131 C.ar    1  UNL1        0.1512
     25 C         138.9766  144.4389  165.0889 C.3     1  UNL1        0.0750
     26 C         143.8046  140.8350  159.6510 C.2     1  UNL1        0.2688
     27 O         143.1608  142.1599  159.9343 O.2     1  UNL1       -0.2681
     28 N         144.2389  139.9545  160.7850 N.am    1  UNL1       -0.2790
     29 H         144.6614  139.0849  160.5991 H       1  UNL1        0.1552
     30 C         144.4333  139.5022  155.3992 C.ar    1  UNL1        0.2449
     31 C         143.5659  138.6940  156.3180 C.ar    1  UNL1        0.1565
     32 N         143.3563  139.1383  157.7353 N.ar    1  UNL1       -0.2328
     33 C         144.0142  140.3908  158.2337 C.ar    1  UNL1        0.1541
     34 C         144.8816  141.1990  157.3149 C.ar    1  UNL1        0.1258
     35 N         145.0911  140.7547  155.8976 N.ar    1  UNL1       -0.2071
     36 C         143.5936  139.3345  152.9463 C.3     1  UNL1        0.2543
     37 O         144.6428  139.0579  153.9819 O.3     1  UNL1       -0.4551
@<TRIPOS>BOND
     1    36    37    1
     2    37    30    1
     3    30    31   ar
     4    31    32   ar
     5    32    33   ar
     6    33    26    1
     7    26    27    2
     8    26    28   am
     9    28     1    1
    10     1     2   ar
    11     2     3   ar
    12     3     4    1
    13     3     5   ar
    14     5     6    1
    15     5     7   ar
    16     7     9    1
    17     9    10    1
    18     9    11    1
    19    11    12    1
    20    12    19    1
    21    19    20   ar
    22    20    21    1
    23    20    22   ar
    24    22    23   ar
    25    23    24   ar
    26    24    25    1
    27    12    13    1
    28    13    14    1
    29    14    15    1
    30    14    16    2
    31     7     8   ar
    32    33    34   ar
    33    34    35   ar
    34    35    30   ar
    35     8     1   ar
    36    16     9    1
    37    24    19   ar
    38    28    29    1
    39    15    17    1
    40    15    18    1
