@<TRIPOS>MOLECULE
*****
 25 28 0 0 0
SMALL
GASTEIGER

@<TRIPOS>ATOM
      1 C         141.5035  140.2080  169.4914 C.ar    1  UNL1        0.1366
      2 C         142.4179  139.1272  168.9958 C.ar    1  UNL1        0.0367
      3 C         142.6669  139.3641  167.5357 C.ar    1  UNL1        0.0769
      4 CL        143.5257  138.5217  166.6397 Cl      1  UNL1       -0.0806
      5 C         141.9064  140.5914  167.1289 C.ar    1  UNL1        0.0936
      6 C         141.7758  141.3014  165.8141 C.ar    1  UNL1        0.0221
      7 C         140.9261  142.5329  165.7080 C.ar    1  UNL1        0.0284
      8 C         140.2071  143.0545  166.9167 C.ar    1  UNL1        0.1210
      9 N         140.3377  142.3445  168.2315 N.ar    1  UNL1       -0.1634
     10 N         141.1874  141.1130  168.3376 N.ar    1  UNL1       -0.2244
     11 C         140.7955  143.2430  164.3931 C.ar    1  UNL1        0.0305
     12 C         141.4619  142.8491  163.1083 C.ar    1  UNL1        0.0025
     13 C         141.0537  143.8342  162.0534 C.ar    1  UNL1       -0.0170
     14 C         140.1350  144.8370  162.6862 C.ar    1  UNL1        0.0193
     15 S         139.9754  144.4716  164.1322 S.2     1  UNL1       -0.0902
     16 C         139.5625  145.9533  161.8640 C.3     1  UNL1        0.1018
     17 N         139.9086  146.0669  160.4089 N.3     1  UNL1       -0.2930
     18 C         140.8273  145.0641  159.7761 C.3     1  UNL1        0.0736
     19 C         141.3998  143.9478  160.5983 C.3     1  UNL1        0.0437
     20 H         140.3382  146.9828  160.2790 H       1  UNL1        0.1236
     21 N         139.9214  139.4421  171.4047 N.am    1  UNL1       -0.3241
     22 C         140.9946  140.3577  170.8944 C.2     1  UNL1        0.2606
     23 O         141.5586  141.4227  171.7873 O.2     1  UNL1       -0.2687
     24 H         139.5873  139.5403  172.3255 H       1  UNL1        0.1453
     25 H         139.5511  138.7430  170.8186 H       1  UNL1        0.1453
@<TRIPOS>BOND
     1    21    22   am
     2    22    23    2
     3    22     1    1
     4     1     2   ar
     5     2     3   ar
     6     3     4    1
     7     3     5   ar
     8     5     6   ar
     9     6     7   ar
    10     7    11    1
    11    11    12   ar
    12    12    13   ar
    13    13    14   ar
    14    14    15   ar
    15    14    16    1
    16    16    17    1
    17    17    18    1
    18    18    19    1
    19     7     8   ar
    20     8     9   ar
    21     9    10   ar
    22    10     1   ar
    23    10     5   ar
    24    15    11   ar
    25    19    13    1
    26    21    24    1
    27    21    25    1
    28    17    20    1
@<TRIPOS>MOLECULE
*****
 25 28 0 0 0
SMALL
GASTEIGER

@<TRIPOS>ATOM
      1 C         140.7098  141.3480  169.7631 C.ar    1  UNL1        0.1366
      2 C         139.4474  140.5415  169.6851 C.ar    1  UNL1        0.0367
      3 C         139.3234  140.0087  168.2884 C.ar    1  UNL1        0.0769
      4 CL        138.2093  139.1495  167.7682 Cl      1  UNL1       -0.0806
      5 C         140.5090  140.4859  167.5032 C.ar    1  UNL1        0.0936
      6 C         140.9191  140.2736  166.0761 C.ar    1  UNL1        0.0221
      7 C         142.1861  140.8891  165.5604 C.ar    1  UNL1        0.0284
      8 C         143.0429  141.7168  166.4718 C.ar    1  UNL1        0.1210
      9 N         142.6328  141.9291  167.8989 N.ar    1  UNL1       -0.1634
     10 N         141.3659  141.3136  168.4146 N.ar    1  UNL1       -0.2244
     11 C         142.5962  140.6768  164.1332 C.ar    1  UNL1        0.0305
     12 C         142.5172  141.6930  163.0327 C.ar    1  UNL1        0.0025
     13 C         143.0296  141.0553  161.7753 C.ar    1  UNL1       -0.0170
     14 C         143.4252  139.6450  162.0988 C.ar    1  UNL1        0.0193
     15 S         143.1574  139.4111  163.5560 S.2     1  UNL1       -0.0902
     16 C         143.9782  138.7560  161.0246 C.3     1  UNL1        0.1018
     17 N         144.1356  139.2773  159.6269 N.3     1  UNL1       -0.2930
     18 C         143.7400  140.6876  159.3035 C.3     1  UNL1        0.0736
     19 C         143.1870  141.5766  160.3777 C.3     1  UNL1        0.0437
     20 H         143.5823  138.6702  159.0222 H       1  UNL1        0.1236
     21 N         142.6132  142.6328  170.9781 N.am    1  UNL1       -0.3241
     22 C         141.2255  142.0633  170.9765 C.2     1  UNL1        0.2606
     23 O         140.3537  142.2091  172.1883 O.2     1  UNL1       -0.2687
     24 H         142.9517  143.1023  171.7745 H       1  UNL1        0.1453
     25 H         143.1855  142.5372  170.1828 H       1  UNL1        0.1453
@<TRIPOS>BOND
     1    21    22   am
     2    22    23    2
     3    22     1    1
     4     1     2   ar
     5     2     3   ar
     6     3     4    1
     7     3     5   ar
     8     5     6   ar
     9     6     7   ar
    10     7    11    1
    11    11    12   ar
    12    12    13   ar
    13    13    14   ar
    14    14    15   ar
    15    14    16    1
    16    16    17    1
    17    17    18    1
    18    18    19    1
    19     7     8   ar
    20     8     9   ar
    21     9    10   ar
    22    10     1   ar
    23    10     5   ar
    24    15    11   ar
    25    19    13    1
    26    21    24    1
    27    21    25    1
    28    17    20    1
@<TRIPOS>MOLECULE
*****
 25 28 0 0 0
SMALL
GASTEIGER

@<TRIPOS>ATOM
      1 C         141.7194  138.4003  160.8808 C.ar    1  UNL1        0.1366
      2 C         140.2542  138.1550  160.6737 C.ar    1  UNL1        0.0367
      3 C         139.5603  138.3554  161.9884 C.ar    1  UNL1        0.0769
      4 CL        138.0885  138.2118  162.2394 Cl      1  UNL1       -0.0806
      5 C         140.5967  138.7246  163.0080 C.ar    1  UNL1        0.0936
      6 C         140.4978  139.0390  164.4713 C.ar    1  UNL1        0.0221
      7 C         141.7332  139.3813  165.2500 C.ar    1  UNL1        0.0284
      8 C         143.0676  139.4091  164.5655 C.ar    1  UNL1        0.1210
      9 N         143.1666  139.0946  163.1022 N.ar    1  UNL1       -0.1634
     10 N         141.9311  138.7524  162.3234 N.ar    1  UNL1       -0.2244
     11 C         141.6343  139.6958  166.7134 C.ar    1  UNL1        0.0305
     12 C         140.4211  140.2205  167.4224 C.ar    1  UNL1        0.0025
     13 C         140.7683  140.3898  168.8718 C.ar    1  UNL1       -0.0170
     14 C         142.1961  139.9696  169.0586 C.ar    1  UNL1        0.0193
     15 S         142.7313  139.5407  167.7246 S.2     1  UNL1       -0.0902
     16 C         142.8243  140.0318  170.4193 C.3     1  UNL1        0.1018
     17 N         142.0248  140.5143  171.5932 N.3     1  UNL1       -0.2930
     18 C         140.5970  140.9344  171.4064 C.3     1  UNL1        0.0736
     19 C         139.9687  140.8722  170.0457 C.3     1  UNL1        0.0437
     20 H         142.5208  141.3189  171.9765 H       1  UNL1        0.1236
     21 N         144.0861  139.0340  160.0160 N.am    1  UNL1       -0.3241
     22 C         142.7857  138.3096  159.8297 C.2     1  UNL1        0.2606
     23 O         142.5519  137.4946  158.5924 O.2     1  UNL1       -0.2687
     24 H         144.7859  138.9744  159.3262 H       1  UNL1        0.1453
     25 H         144.2396  139.5689  160.8281 H       1  UNL1        0.1453
@<TRIPOS>BOND
     1    21    22   am
     2    22    23    2
     3    22     1    1
     4     1     2   ar
     5     2     3   ar
     6     3     4    1
     7     3     5   ar
     8     5     6   ar
     9     6     7   ar
    10     7    11    1
    11    11    12   ar
    12    12    13   ar
    13    13    14   ar
    14    14    15   ar
    15    14    16    1
    16    16    17    1
    17    17    18    1
    18    18    19    1
    19     7     8   ar
    20     8     9   ar
    21     9    10   ar
    22    10     1   ar
    23    10     5   ar
    24    15    11   ar
    25    19    13    1
    26    21    24    1
    27    21    25    1
    28    17    20    1
@<TRIPOS>MOLECULE
*****
 25 28 0 0 0
SMALL
GASTEIGER

@<TRIPOS>ATOM
      1 C         142.0152  144.1321  161.0469 C.ar    1  UNL1        0.1366
      2 C         143.2132  143.3257  160.6416 C.ar    1  UNL1        0.0367
      3 C         143.6561  142.5244  161.8298 C.ar    1  UNL1        0.0769
      4 CL        144.8191  141.5780  161.8711 Cl      1  UNL1       -0.0806
      5 C         142.7317  142.8356  162.9694 C.ar    1  UNL1        0.0936
      6 C         142.6825  142.3425  164.3852 C.ar    1  UNL1        0.0221
      7 C         141.6190  142.8431  165.3171 C.ar    1  UNL1        0.0284
      8 C         140.6048  143.8367  164.8332 C.ar    1  UNL1        0.1210
      9 N         140.6541  144.3298  163.4174 N.ar    1  UNL1       -0.1634
     10 N         141.7175  143.8292  162.4855 N.ar    1  UNL1       -0.2244
     11 C         141.5697  142.3500  166.7329 C.ar    1  UNL1        0.0305
     12 C         140.3288  142.0295  167.5122 C.ar    1  UNL1        0.0025
     13 C         140.7448  141.5724  168.8789 C.ar    1  UNL1       -0.0170
     14 C         142.2430  141.6103  168.9443 C.ar    1  UNL1        0.0193
     15 S         142.7527  142.0909  167.6180 S.2     1  UNL1       -0.0902
     16 C         142.9493  141.2022  170.2030 C.3     1  UNL1        0.1018
     17 N         142.1576  140.7563  171.3965 N.3     1  UNL1       -0.2930
     18 C         140.6596  140.7184  171.3312 C.3     1  UNL1        0.0736
     19 C         139.9531  141.1264  170.0723 C.3     1  UNL1        0.0437
     20 H         142.4031  141.3824  172.1634 H       1  UNL1        0.1236
     21 N         139.8621  145.4992  160.5513 N.am    1  UNL1       -0.3241
     22 C         141.2491  145.0758  160.1679 C.2     1  UNL1        0.2606
     23 O         141.8700  145.5961  158.9055 O.2     1  UNL1       -0.2687
     24 H         139.3593  146.1186  159.9744 H       1  UNL1        0.1453
     25 H         139.4545  145.1578  161.3799 H       1  UNL1        0.1453
@<TRIPOS>BOND
     1    21    22   am
     2    22    23    2
     3    22     1    1
     4     1     2   ar
     5     2     3   ar
     6     3     4    1
     7     3     5   ar
     8     5     6   ar
     9     6     7   ar
    10     7    11    1
    11    11    12   ar
    12    12    13   ar
    13    13    14   ar
    14    14    15   ar
    15    14    16    1
    16    16    17    1
    17    17    18    1
    18    18    19    1
    19     7     8   ar
    20     8     9   ar
    21     9    10   ar
    22    10     1   ar
    23    10     5   ar
    24    15    11   ar
    25    19    13    1
    26    21    24    1
    27    21    25    1
    28    17    20    1
@<TRIPOS>MOLECULE
*****
 25 28 0 0 0
SMALL
GASTEIGER

@<TRIPOS>ATOM
      1 C         140.6429  142.1060  169.9084 C.ar    1  UNL1        0.1366
      2 C         141.1886  140.9616  170.7101 C.ar    1  UNL1        0.0367
      3 C         141.8109  139.9838  169.7580 C.ar    1  UNL1        0.0769
      4 CL        142.4773  138.6926  170.1305 Cl      1  UNL1       -0.0806
      5 C         141.6497  140.5238  168.3678 C.ar    1  UNL1        0.0936
      6 C         142.0671  139.9906  167.0294 C.ar    1  UNL1        0.0221
      7 C         141.7626  140.7691  165.7839 C.ar    1  UNL1        0.0284
      8 C         141.0407  142.0807  165.8769 C.ar    1  UNL1        0.1210
      9 N         140.6234  142.6138  167.2154 N.ar    1  UNL1       -0.1634
     10 N         140.9279  141.8354  168.4608 N.ar    1  UNL1       -0.2244
     11 C         142.1799  140.2360  164.4453 C.ar    1  UNL1        0.0305
     12 C         141.7667  138.9218  163.8519 C.ar    1  UNL1        0.0025
     13 C         142.4151  138.7970  162.5051 C.ar    1  UNL1       -0.0170
     14 C         143.2291  140.0342  162.2661 C.ar    1  UNL1        0.0193
     15 S         143.0837  140.9235  163.4652 S.2     1  UNL1       -0.0902
     16 C         143.9974  140.1911  160.9874 C.3     1  UNL1        0.1018
     17 N         143.9519  139.1108  159.9477 N.3     1  UNL1       -0.2930
     18 C         143.1380  137.8737  160.1866 C.3     1  UNL1        0.0736
     19 C         142.3696  137.7168  161.4653 C.3     1  UNL1        0.0437
     20 H         144.9136  138.8061  159.7974 H       1  UNL1        0.1236
     21 N         140.3958  144.6866  170.0799 N.am    1  UNL1       -0.3241
     22 C         139.9362  143.3096  170.4579 C.2     1  UNL1        0.2606
     23 O         138.7701  143.1364  171.3852 O.2     1  UNL1       -0.2687
     24 H         139.9320  145.4766  170.4405 H       1  UNL1        0.1453
     25 H         141.1612  144.8004  169.4712 H       1  UNL1        0.1453
@<TRIPOS>BOND
     1    21    22   am
     2    22    23    2
     3    22     1    1
     4     1     2   ar
     5     2     3   ar
     6     3     4    1
     7     3     5   ar
     8     5     6   ar
     9     6     7   ar
    10     7    11    1
    11    11    12   ar
    12    12    13   ar
    13    13    14   ar
    14    14    15   ar
    15    14    16    1
    16    16    17    1
    17    17    18    1
    18    18    19    1
    19     7     8   ar
    20     8     9   ar
    21     9    10   ar
    22    10     1   ar
    23    10     5   ar
    24    15    11   ar
    25    19    13    1
    26    21    24    1
    27    21    25    1
    28    17    20    1
@<TRIPOS>MOLECULE
*****
 25 28 0 0 0
SMALL
GASTEIGER

@<TRIPOS>ATOM
      1 C         143.9736  140.0287  161.5189 C.ar    1  UNL1        0.1366
      2 C         144.4329  141.4052  161.1388 C.ar    1  UNL1        0.0367
      3 C         144.1672  142.3190  162.2983 C.ar    1  UNL1        0.0769
      4 CL        144.4715  143.7868  162.3518 Cl      1  UNL1       -0.0806
      5 C         143.5437  141.5073  163.3949 C.ar    1  UNL1        0.0936
      6 C         143.0695  141.8743  164.7698 C.ar    1  UNL1        0.0221
      7 C         142.4756  140.8257  165.6630 C.ar    1  UNL1        0.0284
      8 C         142.3560  139.4102  165.1813 C.ar    1  UNL1        0.1210
      9 N         142.8302  139.0433  163.8064 N.ar    1  UNL1       -0.1634
     10 N         143.4241  140.0918  162.9132 N.ar    1  UNL1       -0.2244
     11 C         142.0014  141.1926  167.0380 C.ar    1  UNL1        0.0305
     12 C         141.1111  142.3491  167.3842 C.ar    1  UNL1        0.0025
     13 C         140.8937  142.3387  168.8683 C.ar    1  UNL1       -0.0170
     14 C         141.6496  141.1757  169.4394 C.ar    1  UNL1        0.0193
     15 S         142.3342  140.4674  168.3081 S.2     1  UNL1       -0.0902
     16 C         141.6168  140.9120  170.9156 C.3     1  UNL1        0.1018
     17 N         140.8282  141.8112  171.8208 N.3     1  UNL1       -0.2930
     18 C         140.0723  142.9741  171.2498 C.3     1  UNL1        0.0736
     19 C         140.1050  143.2379  169.7735 C.3     1  UNL1        0.0437
     20 H         141.4848  142.1926  172.5019 H       1  UNL1        0.1236
     21 N         144.3152  137.4645  161.2771 N.am    1  UNL1       -0.3241
     22 C         144.0504  138.8041  160.6561 C.2     1  UNL1        0.2606
     23 O         143.8624  138.9189  159.1724 O.2     1  UNL1       -0.2687
     24 H         144.3656  136.6607  160.7108 H       1  UNL1        0.1453
     25 H         144.4386  137.3891  162.2509 H       1  UNL1        0.1453
@<TRIPOS>BOND
     1    21    22   am
     2    22    23    2
     3    22     1    1
     4     1     2   ar
     5     2     3   ar
     6     3     4    1
     7     3     5   ar
     8     5     6   ar
     9     6     7   ar
    10     7    11    1
    11    11    12   ar
    12    12    13   ar
    13    13    14   ar
    14    14    15   ar
    15    14    16    1
    16    16    17    1
    17    17    18    1
    18    18    19    1
    19     7     8   ar
    20     8     9   ar
    21     9    10   ar
    22    10     1   ar
    23    10     5   ar
    24    15    11   ar
    25    19    13    1
    26    21    24    1
    27    21    25    1
    28    17    20    1
@<TRIPOS>MOLECULE
*****
 25 28 0 0 0
SMALL
GASTEIGER

@<TRIPOS>ATOM
      1 C         142.2702  140.5009  169.8522 C.ar    1  UNL1        0.1366
      2 C         141.4784  141.4361  170.7174 C.ar    1  UNL1        0.0367
      3 C         140.8259  142.4512  169.8265 C.ar    1  UNL1        0.0769
      4 CL        139.9403  143.5766  170.2729 Cl      1  UNL1       -0.0806
      5 C         141.2144  142.1434  168.4107 C.ar    1  UNL1        0.0936
      6 C         140.8707  142.8050  167.1092 C.ar    1  UNL1        0.0221
      7 C         141.4196  142.2612  165.8235 C.ar    1  UNL1        0.0284
      8 C         142.3123  141.0559  165.8395 C.ar    1  UNL1        0.1210
      9 N         142.6560  140.3943  167.1410 N.ar    1  UNL1       -0.1634
     10 N         142.1071  140.9381  168.4267 N.ar    1  UNL1       -0.2244
     11 C         141.0759  142.9228  164.5219 C.ar    1  UNL1        0.0305
     12 C         141.1138  142.2780  163.1681 C.ar    1  UNL1        0.0025
     13 C         140.6953  143.3021  162.1550 C.ar    1  UNL1       -0.0170
     14 C         140.3988  144.5798  162.8828 C.ar    1  UNL1        0.0193
     15 S         140.6340  144.3454  164.3455 S.2     1  UNL1       -0.0902
     16 C         139.9529  145.7916  162.1194 C.3     1  UNL1        0.1018
     17 N         139.8035  145.7257  160.6283 N.3     1  UNL1       -0.2930
     18 C         140.1000  144.4480  159.9006 C.3     1  UNL1        0.0736
     19 C         140.5460  143.2362  160.6640 C.3     1  UNL1        0.0437
     20 H         140.4222  146.4369  160.2387 H       1  UNL1        0.1236
     21 N         143.9646  139.4757  171.5339 N.am    1  UNL1       -0.3241
     22 C         143.0825  139.3335  170.3290 C.2     1  UNL1        0.2606
     23 O         143.0129  138.0240  169.6009 O.2     1  UNL1       -0.2687
     24 H         144.4978  138.7095  171.8468 H       1  UNL1        0.1453
     25 H         144.0104  140.3352  172.0118 H       1  UNL1        0.1453
@<TRIPOS>BOND
     1    21    22   am
     2    22    23    2
     3    22     1    1
     4     1     2   ar
     5     2     3   ar
     6     3     4    1
     7     3     5   ar
     8     5     6   ar
     9     6     7   ar
    10     7    11    1
    11    11    12   ar
    12    12    13   ar
    13    13    14   ar
    14    14    15   ar
    15    14    16    1
    16    16    17    1
    17    17    18    1
    18    18    19    1
    19     7     8   ar
    20     8     9   ar
    21     9    10   ar
    22    10     1   ar
    23    10     5   ar
    24    15    11   ar
    25    19    13    1
    26    21    24    1
    27    21    25    1
    28    17    20    1
@<TRIPOS>MOLECULE
*****
 25 28 0 0 0
SMALL
GASTEIGER

@<TRIPOS>ATOM
      1 C         138.6331  141.2733  160.8978 C.ar    1  UNL1        0.1366
      2 C         138.3139  139.8126  160.7778 C.ar    1  UNL1        0.0367
      3 C         138.4921  139.1866  162.1292 C.ar    1  UNL1        0.0769
      4 CL        138.2784  137.7407  162.4663 Cl      1  UNL1       -0.0806
      5 C         138.9214  140.2605  163.0845 C.ar    1  UNL1        0.0936
      6 C         139.2442  140.2306  164.5490 C.ar    1  UNL1        0.0221
      7 C         139.6542  141.4904  165.2524 C.ar    1  UNL1        0.0284
      8 C         139.7414  142.7800  164.4914 C.ar    1  UNL1        0.1210
      9 N         139.4186  142.8099  163.0268 N.ar    1  UNL1       -0.1634
     10 N         139.0086  141.5501  162.3234 N.ar    1  UNL1       -0.2244
     11 C         139.9771  141.4606  166.7170 C.ar    1  UNL1        0.0305
     12 C         140.6277  142.5629  167.4991 C.ar    1  UNL1        0.0025
     13 C         140.7587  142.1067  168.9220 C.ar    1  UNL1       -0.0170
     14 C         140.1890  140.7225  169.0194 C.ar    1  UNL1        0.0193
     15 S         139.7060  140.3232  167.6567 S.2     1  UNL1       -0.0902
     16 C         140.1838  140.0046  170.3364 C.3     1  UNL1        0.1018
     17 N         140.7482  140.6708  171.5561 N.3     1  UNL1       -0.2930
     18 C         141.3179  142.0550  171.4587 C.3     1  UNL1        0.0736
     19 C         141.3231  142.7730  170.1417 C.3     1  UNL1        0.0437
     20 H         141.4954  140.0685  171.9014 H       1  UNL1        0.1236
     21 N         139.0949  143.6727  160.0148 N.am    1  UNL1       -0.3241
     22 C         138.5852  142.2804  159.7872 C.2     1  UNL1        0.2606
     23 O         138.0278  141.8953  158.4490 O.2     1  UNL1       -0.2687
     24 H         139.0635  144.3337  159.2859 H       1  UNL1        0.1453
     25 H         139.4608  143.9255  160.8932 H       1  UNL1        0.1453
@<TRIPOS>BOND
     1    21    22   am
     2    22    23    2
     3    22     1    1
     4     1     2   ar
     5     2     3   ar
     6     3     4    1
     7     3     5   ar
     8     5     6   ar
     9     6     7   ar
    10     7    11    1
    11    11    12   ar
    12    12    13   ar
    13    13    14   ar
    14    14    15   ar
    15    14    16    1
    16    16    17    1
    17    17    18    1
    18    18    19    1
    19     7     8   ar
    20     8     9   ar
    21     9    10   ar
    22    10     1   ar
    23    10     5   ar
    24    15    11   ar
    25    19    13    1
    26    21    24    1
    27    21    25    1
    28    17    20    1
@<TRIPOS>MOLECULE
*****
 25 28 0 0 0
SMALL
GASTEIGER

@<TRIPOS>ATOM
      1 C         139.9905  143.8357  160.6523 C.ar    1  UNL1        0.1366
      2 C         138.8979  142.8325  160.4293 C.ar    1  UNL1        0.0367
      3 C         138.6831  142.0880  161.7136 C.ar    1  UNL1        0.0769
      4 CL        137.6839  140.9926  161.9412 Cl      1  UNL1       -0.0806
      5 C         139.6429  142.6310  162.7304 C.ar    1  UNL1        0.0936
      6 C         139.8855  142.2815  164.1687 C.ar    1  UNL1        0.0221
      7 C         140.9362  143.0122  164.9512 C.ar    1  UNL1        0.0284
      8 C         141.7442  144.0924  164.2952 C.ar    1  UNL1        0.1210
      9 N         141.5016  144.4419  162.8569 N.ar    1  UNL1       -0.1634
     10 N         140.4509  143.7113  162.0745 N.ar    1  UNL1       -0.2244
     11 C         141.1788  142.6627  166.3896 C.ar    1  UNL1        0.0305
     12 C         140.2350  142.9112  167.5287 C.ar    1  UNL1        0.0025
     13 C         140.8808  142.4054  168.7845 C.ar    1  UNL1       -0.0170
     14 C         142.2237  141.8442  168.4216 C.ar    1  UNL1        0.0193
     15 S         142.4079  142.0032  166.9415 S.2     1  UNL1       -0.0902
     16 C         143.1053  141.2609  169.4858 C.3     1  UNL1        0.1018
     17 N         142.6440  141.2388  170.9129 N.3     1  UNL1       -0.2930
     18 C         141.3012  141.8000  171.2759 C.3     1  UNL1        0.0736
     19 C         140.4195  142.3833  170.2116 C.3     1  UNL1        0.0437
     20 H         143.3359  141.7574  171.4541 H       1  UNL1        0.1236
     21 N         141.8735  145.4277  159.8335 N.am    1  UNL1       -0.3241
     22 C         140.5283  144.7951  159.6323 C.2     1  UNL1        0.2606
     23 O         139.7210  145.1219  158.4111 O.2     1  UNL1       -0.2687
     24 H         142.2264  146.0574  159.1640 H       1  UNL1        0.1453
     25 H         142.4034  145.2132  160.6350 H       1  UNL1        0.1453
@<TRIPOS>BOND
     1    21    22   am
     2    22    23    2
     3    22     1    1
     4     1     2   ar
     5     2     3   ar
     6     3     4    1
     7     3     5   ar
     8     5     6   ar
     9     6     7   ar
    10     7    11    1
    11    11    12   ar
    12    12    13   ar
    13    13    14   ar
    14    14    15   ar
    15    14    16    1
    16    16    17    1
    17    17    18    1
    18    18    19    1
    19     7     8   ar
    20     8     9   ar
    21     9    10   ar
    22    10     1   ar
    23    10     5   ar
    24    15    11   ar
    25    19    13    1
    26    21    24    1
    27    21    25    1
    28    17    20    1
