@<TRIPOS>MOLECULE
*****
 20 21 0 0 0
SMALL
GASTEIGER

@<TRIPOS>ATOM
      1 C         140.9695  142.5768  169.3779 C.2     1  UNL1        0.1535
      2 N         140.8539  142.7143  167.8887 N.2     1  UNL1       -0.2470
      3 C         140.0514  141.5549  167.3770 C.3     1  UNL1        0.1720
      4 C         139.6178  141.1666  165.9946 C.3     1  UNL1        0.1656
      5 O         139.9983  142.0206  164.8216 O.3     1  UNL1       -0.3798
      6 C         138.8038  139.9241  165.7850 C.3     1  UNL1        0.1735
      7 C         138.4234  139.0701  166.9580 C.3     1  UNL1        0.1749
      8 O         138.8570  139.4585  168.3405 O.3     1  UNL1       -0.3402
      9 C         139.6709  140.7009  168.5500 C.3     1  UNL1        0.1938
     10 S         140.2384  141.3325  169.7866 S.3     1  UNL1       -0.0497
     11 H         139.6411  141.6307  164.0084 H       1  UNL1        0.2105
     12 C         137.6094  137.8277  166.7486 C.3     1  UNL1        0.1693
     13 O         136.5546  137.4455  167.7442 O.3     1  UNL1       -0.3794
     14 H         136.9738  137.2242  168.5905 H       1  UNL1        0.2105
     15 N         141.6898  143.5183  170.2970 N.pl3   1  UNL1       -0.3135
     16 H         141.2275  144.3134  170.6482 H       1  UNL1        0.1487
     17 C         143.9800  142.3965  169.8007 C.3     1  UNL1        0.0230
     18 C         143.1145  143.2485  170.6810 C.3     1  UNL1        0.0887
     19 O         138.3703  139.5358  164.4026 O.3     1  UNL1       -0.3485
     20 C         139.2888  138.7384  163.5248 C.3     1  UNL1        0.1742
@<TRIPOS>BOND
     1    17    18    1
     2    18    15    1
     3    15     1    1
     4     1     2    2
     5     3     2    1
     6     3     4    1
     7     4     5    1
     8     4     6    1
     9     6    19    1
    10    19    20    1
    11     6     7    1
    12     7    12    1
    13    12    13    1
    14     7     8    1
    15     9     8    1
    16     9    10    1
    17    10     1    1
    18     9     3    1
    19    15    16    1
    20     5    11    1
    21    13    14    1
@<TRIPOS>MOLECULE
*****
 20 21 0 0 0
SMALL
GASTEIGER

@<TRIPOS>ATOM
      1 C         138.9499  139.5060  165.0194 C.2     1  UNL1        0.1535
      2 N         139.9993  140.5718  165.1323 N.2     1  UNL1       -0.2470
      3 C         140.2881  140.7856  166.5887 C.3     1  UNL1        0.1720
      4 C         141.2316  141.7098  167.2997 C.3     1  UNL1        0.1656
      5 O         142.1025  142.6435  166.5125 O.3     1  UNL1       -0.3798
      6 C         141.3042  141.7004  168.7979 C.3     1  UNL1        0.1735
      7 C         140.4332  140.7667  169.5851 C.3     1  UNL1        0.1749
      8 O         139.4897  139.8424  168.8740 O.3     1  UNL1       -0.3402
      9 C         139.4172  139.8519  167.3759 C.3     1  UNL1        0.1938
     10 S         138.5901  139.0610  166.4060 S.3     1  UNL1       -0.0497
     11 H         142.6479  143.1668  167.1204 H       1  UNL1        0.2105
     12 C         140.5058  140.7573  171.0833 C.3     1  UNL1        0.1693
     13 O         140.5919  142.0506  171.8381 O.3     1  UNL1       -0.3794
     14 H         141.4348  142.4866  171.6375 H       1  UNL1        0.2105
     15 N         138.3632  138.9778  163.7439 N.pl3   1  UNL1       -0.3135
     16 H         137.6243  139.4587  163.3058 H       1  UNL1        0.1487
     17 C         140.3791  137.4537  163.1411 C.3     1  UNL1        0.0230
     18 C         138.9024  137.7170  163.1361 C.3     1  UNL1        0.0887
     19 O         142.2477  142.6247  169.5089 O.3     1  UNL1       -0.3485
     20 C         143.6850  142.2356  169.6896 C.3     1  UNL1        0.1742
@<TRIPOS>BOND
     1    17    18    1
     2    18    15    1
     3    15     1    1
     4     1     2    2
     5     3     2    1
     6     3     4    1
     7     4     5    1
     8     4     6    1
     9     6    19    1
    10    19    20    1
    11     6     7    1
    12     7    12    1
    13    12    13    1
    14     7     8    1
    15     9     8    1
    16     9    10    1
    17    10     1    1
    18     9     3    1
    19    15    16    1
    20     5    11    1
    21    13    14    1
@<TRIPOS>MOLECULE
*****
 20 21 0 0 0
SMALL
GASTEIGER

@<TRIPOS>ATOM
      1 C         140.5459  140.6097  169.2427 C.2     1  UNL1        0.1535
      2 N         139.3249  140.0672  168.5608 N.2     1  UNL1       -0.2470
      3 C         139.7478  139.4917  167.2417 C.3     1  UNL1        0.1720
      4 C         138.9746  138.8217  166.1448 C.3     1  UNL1        0.1656
      5 O         137.4922  138.6349  166.2782 O.3     1  UNL1       -0.3798
      6 C         139.6837  138.3383  164.9145 C.3     1  UNL1        0.1735
      7 C         141.1661  138.5251  164.7812 C.3     1  UNL1        0.1749
      8 O         141.9393  139.1951  165.8782 O.3     1  UNL1       -0.3402
      9 C         141.2301  139.6784  167.1084 C.3     1  UNL1        0.1938
     10 S         141.7233  140.3694  168.3451 S.3     1  UNL1       -0.0497
     11 H         137.1502  138.1887  165.4878 H       1  UNL1        0.2105
     12 C         141.8752  138.0418  163.5510 C.3     1  UNL1        0.1693
     13 O         141.3991  136.8054  162.8478 O.3     1  UNL1       -0.3794
     14 H         141.5296  136.0356  163.4234 H       1  UNL1        0.2105
     15 N         140.5828  141.2756  170.5863 N.pl3   1  UNL1       -0.3135
     16 H         140.9457  140.7940  171.3645 H       1  UNL1        0.1487
     17 C         140.4903  143.7437  169.7804 C.3     1  UNL1        0.0230
     18 C         140.0669  142.6751  170.7442 C.3     1  UNL1        0.0887
     19 O         138.9106  137.6683  163.8176 O.3     1  UNL1       -0.3485
     20 C         138.3102  138.4883  162.7143 C.3     1  UNL1        0.1742
@<TRIPOS>BOND
     1    17    18    1
     2    18    15    1
     3    15     1    1
     4     1     2    2
     5     3     2    1
     6     3     4    1
     7     4     5    1
     8     4     6    1
     9     6    19    1
    10    19    20    1
    11     6     7    1
    12     7    12    1
    13    12    13    1
    14     7     8    1
    15     9     8    1
    16     9    10    1
    17    10     1    1
    18     9     3    1
    19    15    16    1
    20     5    11    1
    21    13    14    1
@<TRIPOS>MOLECULE
*****
 20 21 0 0 0
SMALL
GASTEIGER

@<TRIPOS>ATOM
      1 C         138.6549  140.4975  165.3666 C.2     1  UNL1        0.1535
      2 N         137.9807  141.4174  164.3923 N.2     1  UNL1       -0.2470
      3 C         138.9312  142.5335  164.0746 C.3     1  UNL1        0.1720
      4 C         138.8108  143.7296  163.1775 C.3     1  UNL1        0.1656
      5 O         137.5492  143.9596  162.3995 O.3     1  UNL1       -0.3798
      6 C         139.9521  144.6956  163.0583 C.3     1  UNL1        0.1735
      7 C         141.2138  144.4656  163.8364 C.3     1  UNL1        0.1749
      8 O         141.3341  143.2695  164.7336 O.3     1  UNL1       -0.3402
      9 C         140.1928  142.3035  164.8527 C.3     1  UNL1        0.1938
     10 S         140.0221  141.0452  165.6511 S.3     1  UNL1       -0.0497
     11 H         137.6366  144.7702  161.8740 H       1  UNL1        0.2105
     12 C         142.3551  145.4316  163.7172 C.3     1  UNL1        0.1693
     13 O         143.3857  145.2461  162.6433 O.3     1  UNL1       -0.3794
     14 H         143.8813  144.4288  162.8085 H       1  UNL1        0.2105
     15 N         138.0655  139.2492  165.9534 N.pl3   1  UNL1       -0.3135
     16 H         137.3217  139.3107  166.5954 H       1  UNL1        0.1487
     17 C         139.0755  137.6678  164.1564 C.3     1  UNL1        0.0230
     18 C         138.6092  137.9072  165.5619 C.3     1  UNL1        0.0887
     19 O         139.8318  145.8917  162.1612 O.3     1  UNL1       -0.3485
     20 C         140.1970  145.7809  160.7105 C.3     1  UNL1        0.1742
@<TRIPOS>BOND
     1    17    18    1
     2    18    15    1
     3    15     1    1
     4     1     2    2
     5     3     2    1
     6     3     4    1
     7     4     5    1
     8     4     6    1
     9     6    19    1
    10    19    20    1
    11     6     7    1
    12     7    12    1
    13    12    13    1
    14     7     8    1
    15     9     8    1
    16     9    10    1
    17    10     1    1
    18     9     3    1
    19    15    16    1
    20     5    11    1
    21    13    14    1
@<TRIPOS>MOLECULE
*****
 20 21 0 0 0
SMALL
GASTEIGER

@<TRIPOS>ATOM
      1 C         142.1280  139.1124  166.6405 C.2     1  UNL1        0.1535
      2 N         142.1964  138.1897  165.4598 N.2     1  UNL1       -0.2470
      3 C         141.0950  138.5657  164.5134 C.3     1  UNL1        0.1720
      4 C         140.6774  138.0055  163.1860 C.3     1  UNL1        0.1656
      5 O         141.4264  136.8505  162.5903 O.3     1  UNL1       -0.3798
      6 C         139.5108  138.6004  162.4544 C.3     1  UNL1        0.1735
      7 C         138.7618  139.7554  163.0502 C.3     1  UNL1        0.1749
      8 O         139.1794  140.3155  164.3776 O.3     1  UNL1       -0.3402
      9 C         140.3460  139.7207  165.1091 C.3     1  UNL1        0.1938
     10 S         140.9845  140.0586  166.4238 S.3     1  UNL1       -0.0497
     11 H         141.0302  136.6137  161.7371 H       1  UNL1        0.2105
     12 C         137.5952  140.3502  162.3187 C.3     1  UNL1        0.1693
     13 O         136.6640  141.2878  163.0284 O.3     1  UNL1       -0.3794
     14 H         136.1906  140.8073  163.7254 H       1  UNL1        0.2105
     15 N         143.0427  139.0924  167.8292 N.pl3   1  UNL1       -0.3135
     16 H         143.9563  138.7361  167.7414 H       1  UNL1        0.1487
     17 C         143.0413  140.9485  169.6471 C.3     1  UNL1        0.0230
     18 C         142.5654  139.6151  169.1517 C.3     1  UNL1        0.0887
     19 O         139.0932  138.0402  161.1271 O.3     1  UNL1       -0.3485
     20 C         139.7322  138.5426  159.8665 C.3     1  UNL1        0.1742
@<TRIPOS>BOND
     1    17    18    1
     2    18    15    1
     3    15     1    1
     4     1     2    2
     5     3     2    1
     6     3     4    1
     7     4     5    1
     8     4     6    1
     9     6    19    1
    10    19    20    1
    11     6     7    1
    12     7    12    1
    13    12    13    1
    14     7     8    1
    15     9     8    1
    16     9    10    1
    17    10     1    1
    18     9     3    1
    19    15    16    1
    20     5    11    1
    21    13    14    1
@<TRIPOS>MOLECULE
*****
 20 21 0 0 0
SMALL
GASTEIGER

@<TRIPOS>ATOM
      1 C         139.6815  144.8110  163.2254 C.2     1  UNL1        0.1535
      2 N         138.7033  143.6958  163.0034 N.2     1  UNL1       -0.2470
      3 C         138.8940  142.6872  164.0972 C.3     1  UNL1        0.1720
      4 C         138.2112  141.3845  164.3915 C.3     1  UNL1        0.1656
      5 O         137.1151  140.8926  163.4934 O.3     1  UNL1       -0.3798
      6 C         138.6245  140.5736  165.5839 C.3     1  UNL1        0.1735
      7 C         139.7206  141.0655  166.4820 C.3     1  UNL1        0.1749
      8 O         140.4034  142.3683  166.1876 O.3     1  UNL1       -0.3402
      9 C         139.9901  143.1791  164.9953 C.3     1  UNL1        0.1938
     10 S         140.4768  144.4917  164.4565 S.3     1  UNL1       -0.0497
     11 H         136.7839  140.0426  163.8231 H       1  UNL1        0.2105
     12 C         140.1339  140.2547  167.6743 C.3     1  UNL1        0.1693
     13 O         139.0919  139.6346  168.5572 O.3     1  UNL1       -0.3794
     14 H         138.5881  140.3335  169.0029 H       1  UNL1        0.2105
     15 N         139.8372  146.0313  162.3671 N.pl3   1  UNL1       -0.3135
     16 H         139.8037  146.9270  162.7742 H       1  UNL1        0.1487
     17 C         141.1839  145.0631  160.3673 C.3     1  UNL1        0.0230
     18 C         140.0437  145.8868  160.8884 C.3     1  UNL1        0.0887
     19 O         137.9417  139.2709  165.8781 O.3     1  UNL1       -0.3485
     20 C         138.5521  137.9822  165.4128 C.3     1  UNL1        0.1742
@<TRIPOS>BOND
     1    17    18    1
     2    18    15    1
     3    15     1    1
     4     1     2    2
     5     3     2    1
     6     3     4    1
     7     4     5    1
     8     4     6    1
     9     6    19    1
    10    19    20    1
    11     6     7    1
    12     7    12    1
    13    12    13    1
    14     7     8    1
    15     9     8    1
    16     9    10    1
    17    10     1    1
    18     9     3    1
    19    15    16    1
    20     5    11    1
    21    13    14    1
@<TRIPOS>MOLECULE
*****
 20 21 0 0 0
SMALL
GASTEIGER

@<TRIPOS>ATOM
      1 C         139.2948  140.6147  166.4921 C.2     1  UNL1        0.1535
      2 N         138.3906  140.4104  165.3129 N.2     1  UNL1       -0.2470
      3 C         138.6708  141.4991  164.3198 C.3     1  UNL1        0.1720
      4 C         138.0840  141.8049  162.9736 C.3     1  UNL1        0.1656
      5 O         137.0067  140.9277  162.4081 O.3     1  UNL1       -0.3798
      6 C         138.5747  142.9881  162.1929 C.3     1  UNL1        0.1735
      7 C         139.6520  143.8654  162.7584 C.3     1  UNL1        0.1749
      8 O         140.2387  143.5594  164.1046 O.3     1  UNL1       -0.3402
      9 C         139.7481  142.3763  164.8852 C.3     1  UNL1        0.1938
     10 S         140.1338  141.8297  166.2278 S.3     1  UNL1       -0.0497
     11 H         136.7407  141.2627  161.5376 H       1  UNL1        0.2105
     12 C         140.1426  145.0485  161.9777 C.3     1  UNL1        0.1693
     13 O         139.1613  146.0226  161.3963 O.3     1  UNL1       -0.3794
     14 H         138.6361  145.5818  160.7101 H       1  UNL1        0.2105
     15 N         139.3503  139.7550  167.7201 N.pl3   1  UNL1       -0.3135
     16 H         139.2623  138.7777  167.6411 H       1  UNL1        0.1487
     17 C         140.6612  139.9324  169.9561 C.3     1  UNL1        0.0230
     18 C         139.5398  140.3844  169.0683 C.3     1  UNL1        0.0887
     19 O         137.9880  143.2940  160.8467 O.3     1  UNL1       -0.3485
     20 C         138.5283  142.6175  159.6218 C.3     1  UNL1        0.1742
@<TRIPOS>BOND
     1    17    18    1
     2    18    15    1
     3    15     1    1
     4     1     2    2
     5     3     2    1
     6     3     4    1
     7     4     5    1
     8     4     6    1
     9     6    19    1
    10    19    20    1
    11     6     7    1
    12     7    12    1
    13    12    13    1
    14     7     8    1
    15     9     8    1
    16     9    10    1
    17    10     1    1
    18     9     3    1
    19    15    16    1
    20     5    11    1
    21    13    14    1
@<TRIPOS>MOLECULE
*****
 20 21 0 0 0
SMALL
GASTEIGER

@<TRIPOS>ATOM
      1 C         141.1272  141.0282  167.8635 C.2     1  UNL1        0.1535
      2 N         140.3286  140.1056  166.9911 N.2     1  UNL1       -0.2470
      3 C         139.5791  140.9414  165.9962 C.3     1  UNL1        0.1720
      4 C         138.6346  140.5779  164.8891 C.3     1  UNL1        0.1656
      5 O         138.2993  139.1387  164.6315 O.3     1  UNL1       -0.3798
      6 C         138.0254  141.6536  164.0395 C.3     1  UNL1        0.1735
      7 C         138.3607  143.0928  164.2970 C.3     1  UNL1        0.1749
      8 O         139.3053  143.4562  165.4042 O.3     1  UNL1       -0.3402
      9 C         139.9144  142.3806  166.2538 C.3     1  UNL1        0.1938
     10 S         140.8712  142.4342  167.4078 S.3     1  UNL1       -0.0497
     11 H         137.6801  139.0792  163.8872 H       1  UNL1        0.2105
     12 C         137.7516  144.1684  163.4475 C.3     1  UNL1        0.1693
     13 O         137.7041  144.0099  161.9567 O.3     1  UNL1       -0.3794
     14 H         138.6069  144.0148  161.6021 H       1  UNL1        0.2105
     15 N         142.0242  140.6170  168.9932 N.pl3   1  UNL1       -0.3135
     16 H         142.2970  139.6758  169.0876 H       1  UNL1        0.1487
     17 C         143.8322  142.3100  169.7773 C.3     1  UNL1        0.0230
     18 C         142.5055  141.6399  169.9792 C.3     1  UNL1        0.0887
     19 O         137.0809  141.2901  162.9323 O.3     1  UNL1       -0.3485
     20 C         137.6014  140.6356  161.6870 C.3     1  UNL1        0.1742
@<TRIPOS>BOND
     1    17    18    1
     2    18    15    1
     3    15     1    1
     4     1     2    2
     5     3     2    1
     6     3     4    1
     7     4     5    1
     8     4     6    1
     9     6    19    1
    10    19    20    1
    11     6     7    1
    12     7    12    1
    13    12    13    1
    14     7     8    1
    15     9     8    1
    16     9    10    1
    17    10     1    1
    18     9     3    1
    19    15    16    1
    20     5    11    1
    21    13    14    1
@<TRIPOS>MOLECULE
*****
 20 21 0 0 0
SMALL
GASTEIGER

@<TRIPOS>ATOM
      1 C         141.8184  144.4482  158.8462 C.2     1  UNL1        0.1535
      2 N         141.4812  145.3679  159.9822 N.2     1  UNL1       -0.2470
      3 C         140.4563  144.6878  160.8407 C.3     1  UNL1        0.1720
      4 C         139.7546  145.1156  162.0955 C.3     1  UNL1        0.1656
      5 O         140.0508  146.4556  162.7009 O.3     1  UNL1       -0.3798
      6 C         138.7565  144.2033  162.7449 C.3     1  UNL1        0.1735
      7 C         138.4602  142.8633  162.1395 C.3     1  UNL1        0.1749
      8 O         139.1620  142.4355  160.8847 O.3     1  UNL1       -0.3402
      9 C         140.1601  143.3478  160.2353 C.3     1  UNL1        0.1938
     10 S         141.0019  143.1997  159.0027 S.3     1  UNL1       -0.0497
     11 H         139.5164  146.5740  163.5017 H       1  UNL1        0.2105
     12 C         137.4622  141.9510  162.7889 C.3     1  UNL1        0.1693
     13 O         137.5500  141.6687  164.2594 O.3     1  UNL1       -0.3794
     14 H         138.3650  141.1769  164.4461 H       1  UNL1        0.2105
     15 N         142.7998  144.7279  157.7468 N.pl3   1  UNL1       -0.3135
     16 H         143.7598  144.5630  157.8902 H       1  UNL1        0.1487
     17 C         141.0425  146.0438  156.3576 C.3     1  UNL1        0.0230
     18 C         142.3186  145.2588  156.4291 C.3     1  UNL1        0.0887
     19 O         138.0547  144.6311  163.9997 O.3     1  UNL1       -0.3485
     20 C         138.8110  144.7087  165.2928 C.3     1  UNL1        0.1742
@<TRIPOS>BOND
     1    17    18    1
     2    18    15    1
     3    15     1    1
     4     1     2    2
     5     3     2    1
     6     3     4    1
     7     4     5    1
     8     4     6    1
     9     6    19    1
    10    19    20    1
    11     6     7    1
    12     7    12    1
    13    12    13    1
    14     7     8    1
    15     9     8    1
    16     9    10    1
    17    10     1    1
    18     9     3    1
    19    15    16    1
    20     5    11    1
    21    13    14    1
