@<TRIPOS>MOLECULE
*****
 37 40 0 0 0
SMALL
GASTEIGER

@<TRIPOS>ATOM
      1 S         139.8348  142.7974  164.5725 S.O2    1  UNL1        0.0736
      2 O         138.5717  142.1280  164.1183 O.2     1  UNL1       -0.1499
      3 O         141.0979  143.4669  165.0268 O.2     1  UNL1       -0.1499
      4 C         139.9424  143.4930  163.2479 C.ar    1  UNL1        0.1251
      5 C         139.7892  142.7125  161.9762 C.ar    1  UNL1        0.0199
      6 C         139.8969  143.4081  160.6516 C.ar    1  UNL1       -0.0029
      7 C         140.1578  144.8843  160.5987 C.ar    1  UNL1       -0.0220
      8 C         140.3110  145.6648  161.8705 C.ar    1  UNL1       -0.0029
      9 C         140.2033  144.9692  163.1951 C.ar    1  UNL1        0.0199
     10 C         140.2654  145.5799  159.2742 C.3     1  UNL1        0.0289
     11 C         141.5803  145.6207  158.5532 C.3     1  UNL1        0.0367
     12 C         142.1586  144.3628  157.9762 C.3     1  UNL1        0.1426
     13 O         143.4361  143.8027  158.5278 O.3     1  UNL1       -0.3511
     14 C         143.4008  142.6141  159.4421 C.3     1  UNL1        0.1729
     15 C         143.7395  142.7747  160.8944 C.3     1  UNL1        0.1606
     16 C         144.2823  141.6119  161.6711 C.3     1  UNL1        0.1047
     17 N         144.6210  141.7726  163.1236 N.3     1  UNL1       -0.2672
     18 C         145.1638  140.6098  163.9002 C.3     1  UNL1        0.0898
     19 C         144.4169  143.0961  163.7992 C.3     1  UNL1        0.1047
     20 C         143.8741  144.2590  163.0226 C.3     1  UNL1        0.1595
     21 O         143.5354  144.0982  161.5702 O.3     1  UNL1       -0.3508
     22 N         139.7271  142.1019  165.8971 N.pl3   1  UNL1       -0.2152
     23 H         138.9602  142.2830  166.4873 H       1  UNL1        0.1737
     24 C         141.4163  141.2525  167.6790 C.ar    1  UNL1       -0.0074
     25 C         142.4770  140.2810  168.1043 C.ar    1  UNL1       -0.0014
     26 C         142.9094  139.1873  167.1732 C.ar    1  UNL1        0.0207
     27 C         142.2809  139.0651  165.8168 C.ar    1  UNL1        0.1036
     28 N         142.5010  138.0973  164.6921 N.ar    1  UNL1       -0.1692
     29 N         141.5763  138.4706  163.5717 N.ar    1  UNL1       -0.2473
     30 C         141.4630  137.7687  162.2509 C.3     1  UNL1        0.1538
     31 C         140.7846  139.6692  164.0038 C.ar    1  UNL1        0.0979
     32 C         141.2201  140.0367  165.3914 C.ar    1  UNL1        0.0524
     33 C         140.7879  141.1303  166.3225 C.ar    1  UNL1        0.0637
     34 C         140.9840  142.3463  168.6101 C.3     1  UNL1        0.0276
     35 C         139.2957  140.7321  169.7476 C.3     1  UNL1        0.0003
     36 C         140.0058  142.0528  169.7087 C.3     1  UNL1        0.0044
     37 C         139.7375  143.0801  170.7684 C.3     1  UNL1        0.0003
@<TRIPOS>BOND
     1    35    36    1
     2    36    37    1
     3    36    34    1
     4    34    24    1
     5    24    25   ar
     6    25    26   ar
     7    26    27   ar
     8    27    28   ar
     9    28    29   ar
    10    29    30    1
    11    29    31   ar
    12    31    32   ar
    13    32    33   ar
    14    33    22    1
    15    22     1    1
    16     1     2    2
    17     1     3    2
    18     1     4    1
    19     4     5   ar
    20     5     6   ar
    21     6     7   ar
    22     7    10    1
    23    10    11    1
    24    11    12    1
    25    12    13    1
    26    13    14    1
    27    15    14    1
    28    15    16    1
    29    16    17    1
    30    17    18    1
    31    17    19    1
    32    19    20    1
    33    20    21    1
    34     7     8   ar
    35     8     9   ar
    36    33    24   ar
    37     9     4   ar
    38    32    27   ar
    39    21    15    1
    40    22    23    1
@<TRIPOS>MOLECULE
*****
 37 40 0 0 0
SMALL
GASTEIGER

@<TRIPOS>ATOM
      1 S         143.4139  140.1763  164.8615 S.O2    1  UNL1        0.0736
      2 O         142.8986  141.4951  165.3568 O.2     1  UNL1       -0.1499
      3 O         143.9291  138.8574  164.3661 O.2     1  UNL1       -0.1499
      4 C         143.7206  140.7961  163.5304 C.ar    1  UNL1        0.1251
      5 C         144.9803  141.5890  163.3446 C.ar    1  UNL1        0.0199
      6 C         145.2870  142.2088  162.0136 C.ar    1  UNL1       -0.0029
      7 C         144.3340  142.0358  160.8682 C.ar    1  UNL1       -0.0220
      8 C         143.0742  141.2428  161.0540 C.ar    1  UNL1       -0.0029
      9 C         142.7675  140.6230  162.3851 C.ar    1  UNL1        0.0199
     10 C         144.6406  142.6555  159.5372 C.3     1  UNL1        0.0289
     11 C         143.7134  142.4396  158.3779 C.3     1  UNL1        0.0367
     12 C         142.7010  143.4876  158.0220 C.3     1  UNL1        0.1426
     13 O         142.5690  144.7204  158.8663 O.3     1  UNL1       -0.3511
     14 C         141.3102  144.9655  159.6442 C.3     1  UNL1        0.1729
     15 C         141.3150  144.8369  161.1387 C.3     1  UNL1        0.1606
     16 C         140.0184  144.7606  161.8891 C.3     1  UNL1        0.1047
     17 N         140.0234  144.6321  163.3836 N.3     1  UNL1       -0.2672
     18 C         138.7268  144.5558  164.1340 C.3     1  UNL1        0.0898
     19 C         141.3248  144.5798  164.1275 C.3     1  UNL1        0.1047
     20 C         142.6213  144.6561  163.3771 C.3     1  UNL1        0.1595
     21 O         142.6164  144.7847  161.8827 O.3     1  UNL1       -0.3508
     22 N         143.1072  139.5565  166.1925 N.pl3   1  UNL1       -0.2152
     23 H         143.8250  139.1300  166.7141 H       1  UNL1        0.1737
     24 C         141.4493  140.0643  168.1274 C.ar    1  UNL1       -0.0074
     25 C         140.0489  140.0943  168.6639 C.ar    1  UNL1       -0.0014
     26 C         138.9058  139.6466  167.8020 C.ar    1  UNL1        0.0207
     27 C         139.1631  139.1688  166.4036 C.ar    1  UNL1        0.1036
     28 N         138.2440  138.6699  165.3283 N.ar    1  UNL1       -0.1692
     29 N         139.0764  138.3315  164.1272 N.ar    1  UNL1       -0.2473
     30 C         138.5651  137.7972  162.8222 C.3     1  UNL1        0.1538
     31 C         140.5100  138.6213  164.4602 C.ar    1  UNL1        0.0979
     32 C         140.5636  139.1388  165.8671 C.ar    1  UNL1        0.0524
     33 C         141.7067  139.5865  166.7290 C.ar    1  UNL1        0.0637
     34 C         142.5925  140.5120  168.9893 C.3     1  UNL1        0.0276
     35 C         141.6655  142.9383  169.0500 C.3     1  UNL1        0.0003
     36 C         142.7901  141.9713  169.2743 C.3     1  UNL1        0.0044
     37 C         144.1122  142.4639  169.7836 C.3     1  UNL1        0.0003
@<TRIPOS>BOND
     1    35    36    1
     2    36    37    1
     3    36    34    1
     4    34    24    1
     5    24    25   ar
     6    25    26   ar
     7    26    27   ar
     8    27    28   ar
     9    28    29   ar
    10    29    30    1
    11    29    31   ar
    12    31    32   ar
    13    32    33   ar
    14    33    22    1
    15    22     1    1
    16     1     2    2
    17     1     3    2
    18     1     4    1
    19     4     5   ar
    20     5     6   ar
    21     6     7   ar
    22     7    10    1
    23    10    11    1
    24    11    12    1
    25    12    13    1
    26    13    14    1
    27    15    14    1
    28    15    16    1
    29    16    17    1
    30    17    18    1
    31    17    19    1
    32    19    20    1
    33    20    21    1
    34     7     8   ar
    35     8     9   ar
    36    33    24   ar
    37     9     4   ar
    38    32    27   ar
    39    21    15    1
    40    22    23    1
@<TRIPOS>MOLECULE
*****
 37 40 0 0 0
SMALL
GASTEIGER

@<TRIPOS>ATOM
      1 S         144.3104  140.4961  163.5037 S.O2    1  UNL1        0.0736
      2 O         145.5512  141.1184  164.0723 O.2     1  UNL1       -0.1499
      3 O         143.0697  139.8737  162.9350 O.2     1  UNL1       -0.1499
      4 C         143.7592  140.3295  164.8888 C.ar    1  UNL1        0.1251
      5 C         143.5744  138.9559  165.4623 C.ar    1  UNL1        0.0199
      6 C         143.0231  138.7894  166.8474 C.ar    1  UNL1       -0.0029
      7 C         142.6567  139.9965  167.6590 C.ar    1  UNL1       -0.0220
      8 C         142.8416  141.3702  167.0853 C.ar    1  UNL1       -0.0029
      9 C         143.3928  141.5367  165.7003 C.ar    1  UNL1        0.0199
     10 C         142.1055  139.8300  169.0440 C.3     1  UNL1        0.0289
     11 C         140.6242  139.8860  169.2733 C.3     1  UNL1        0.0367
     12 C         139.7233  140.4599  168.2202 C.3     1  UNL1        0.1426
     13 O         138.8885  139.5491  167.3697 O.3     1  UNL1       -0.3511
     14 C         139.3870  139.1139  166.0236 C.3     1  UNL1        0.1729
     15 C         138.8137  139.7231  164.7786 C.3     1  UNL1        0.1606
     16 C         138.5683  141.2013  164.7113 C.3     1  UNL1        0.1047
     17 N         137.9949  141.8105  163.4662 N.3     1  UNL1       -0.2672
     18 C         137.7496  143.2888  163.3989 C.3     1  UNL1        0.0898
     19 C         137.6670  140.9414  162.2885 C.3     1  UNL1        0.1047
     20 C         137.9124  139.4631  162.3557 C.3     1  UNL1        0.1595
     21 O         138.4857  138.8540  163.6008 O.3     1  UNL1       -0.3508
     22 N         144.8617  140.6626  162.1186 N.pl3   1  UNL1       -0.2152
     23 H         145.7844  140.3833  161.9192 H       1  UNL1        0.1737
     24 C         143.6992  142.7228  161.0443 C.ar    1  UNL1       -0.0074
     25 C         142.8447  143.3150  159.9632 C.ar    1  UNL1       -0.0014
     26 C         142.2977  142.4391  158.8751 C.ar    1  UNL1        0.0207
     27 C         142.6055  140.9711  158.8683 C.ar    1  UNL1        0.1036
     28 N         142.2101  139.8671  157.9330 N.ar    1  UNL1       -0.1692
     29 N         142.8203  138.5925  158.4362 N.ar    1  UNL1       -0.2473
     30 C         142.6823  137.2392  157.8041 C.3     1  UNL1        0.1538
     31 C         143.5929  138.9089  159.6824 C.ar    1  UNL1        0.0979
     32 C         143.4601  140.3789  159.9495 C.ar    1  UNL1        0.0524
     33 C         144.0070  141.2548  161.0375 C.ar    1  UNL1        0.0637
     34 C         144.2462  143.5987  162.1324 C.3     1  UNL1        0.0276
     35 C         143.8379  145.1758  164.1562 C.3     1  UNL1        0.0003
     36 C         143.3258  144.1663  163.1720 C.3     1  UNL1        0.0044
     37 C         141.8934  143.7244  163.2274 C.3     1  UNL1        0.0003
@<TRIPOS>BOND
     1    35    36    1
     2    36    37    1
     3    36    34    1
     4    34    24    1
     5    24    25   ar
     6    25    26   ar
     7    26    27   ar
     8    27    28   ar
     9    28    29   ar
    10    29    30    1
    11    29    31   ar
    12    31    32   ar
    13    32    33   ar
    14    33    22    1
    15    22     1    1
    16     1     2    2
    17     1     3    2
    18     1     4    1
    19     4     5   ar
    20     5     6   ar
    21     6     7   ar
    22     7    10    1
    23    10    11    1
    24    11    12    1
    25    12    13    1
    26    13    14    1
    27    15    14    1
    28    15    16    1
    29    16    17    1
    30    17    18    1
    31    17    19    1
    32    19    20    1
    33    20    21    1
    34     7     8   ar
    35     8     9   ar
    36    33    24   ar
    37     9     4   ar
    38    32    27   ar
    39    21    15    1
    40    22    23    1
@<TRIPOS>MOLECULE
*****
 37 40 0 0 0
SMALL
GASTEIGER

@<TRIPOS>ATOM
      1 S         142.0428  138.0342  160.9734 S.O2    1  UNL1        0.0736
      2 O         140.8946  138.5722  160.1719 O.2     1  UNL1       -0.1499
      3 O         143.1910  137.4962  161.7748 O.2     1  UNL1       -0.1499
      4 C         141.1435  137.8903  162.1652 C.ar    1  UNL1        0.1251
      5 C         139.6545  137.9441  161.9921 C.ar    1  UNL1        0.0199
      6 C         138.7552  137.8003  163.1840 C.ar    1  UNL1       -0.0029
      7 C         139.3448  137.6025  164.5490 C.ar    1  UNL1       -0.0220
      8 C         140.8339  137.5487  164.7220 C.ar    1  UNL1       -0.0029
      9 C         141.7332  137.6926  163.5302 C.ar    1  UNL1        0.0199
     10 C         138.4456  137.4587  165.7408 C.3     1  UNL1        0.0289
     11 C         137.9984  138.6763  166.4942 C.3     1  UNL1        0.0367
     12 C         139.0147  139.6184  167.0683 C.3     1  UNL1        0.1426
     13 O         139.5114  140.7743  166.2516 O.3     1  UNL1       -0.3511
     14 C         138.6829  141.3030  165.1184 C.3     1  UNL1        0.1729
     15 C         139.3478  141.9684  163.9500 C.3     1  UNL1        0.1606
     16 C         139.1330  143.4314  163.6981 C.3     1  UNL1        0.1047
     17 N         139.7980  144.0967  162.5296 N.3     1  UNL1       -0.2672
     18 C         139.5831  145.5597  162.2777 C.3     1  UNL1        0.0898
     19 C         140.6776  143.2991  161.6132 C.3     1  UNL1        0.1047
     20 C         140.8924  141.8361  161.8652 C.3     1  UNL1        0.1595
     21 O         140.2275  141.1708  163.0336 O.3     1  UNL1       -0.3508
     22 N         142.9421  138.1781  159.7815 N.pl3   1  UNL1       -0.2152
     23 H         143.2988  137.3768  159.3344 H       1  UNL1        0.1737
     24 C         143.0318  139.9009  157.8389 C.ar    1  UNL1       -0.0074
     25 C         143.3878  141.2656  157.3283 C.ar    1  UNL1       -0.0014
     26 C         144.0100  142.2724  158.2498 C.ar    1  UNL1        0.0207
     27 C         144.2763  141.9144  159.6819 C.ar    1  UNL1        0.1036
     28 N         144.8742  142.6924  160.8165 N.ar    1  UNL1       -0.1692
     29 N         144.8877  141.8085  162.0282 N.ar    1  UNL1       -0.2473
     30 C         145.4007  142.1830  163.3871 C.3     1  UNL1        0.1538
     31 C         144.2982  140.4842  161.6426 C.ar    1  UNL1        0.0979
     32 C         143.9203  140.5496  160.1925 C.ar    1  UNL1        0.0524
     33 C         143.2981  139.5429  159.2710 C.ar    1  UNL1        0.0637
     34 C         142.4096  138.8940  156.9173 C.3     1  UNL1        0.0276
     35 C         144.3043  138.2695  155.2531 C.3     1  UNL1        0.0003
     36 C         143.2649  137.8565  156.2526 C.3     1  UNL1        0.0044
     37 C         143.0810  136.4059  156.5874 C.3     1  UNL1        0.0003
@<TRIPOS>BOND
     1    35    36    1
     2    36    37    1
     3    36    34    1
     4    34    24    1
     5    24    25   ar
     6    25    26   ar
     7    26    27   ar
     8    27    28   ar
     9    28    29   ar
    10    29    30    1
    11    29    31   ar
    12    31    32   ar
    13    32    33   ar
    14    33    22    1
    15    22     1    1
    16     1     2    2
    17     1     3    2
    18     1     4    1
    19     4     5   ar
    20     5     6   ar
    21     6     7   ar
    22     7    10    1
    23    10    11    1
    24    11    12    1
    25    12    13    1
    26    13    14    1
    27    15    14    1
    28    15    16    1
    29    16    17    1
    30    17    18    1
    31    17    19    1
    32    19    20    1
    33    20    21    1
    34     7     8   ar
    35     8     9   ar
    36    33    24   ar
    37     9     4   ar
    38    32    27   ar
    39    21    15    1
    40    22    23    1
@<TRIPOS>MOLECULE
*****
 37 40 0 0 0
SMALL
GASTEIGER

@<TRIPOS>ATOM
      1 S         138.5070  141.6033  162.2517 S.O2    1  UNL1        0.0736
      2 O         139.9537  141.9843  162.3617 O.2     1  UNL1       -0.1499
      3 O         137.0603  141.2224  162.1418 O.2     1  UNL1       -0.1499
      4 C         138.8298  140.7141  161.0877 C.ar    1  UNL1        0.1251
      5 C         139.2191  139.2845  161.3212 C.ar    1  UNL1        0.0199
      6 C         139.5418  138.3952  160.1572 C.ar    1  UNL1       -0.0029
      7 C         139.4752  138.9355  158.7595 C.ar    1  UNL1       -0.0220
      8 C         139.0858  140.3652  158.5259 C.ar    1  UNL1       -0.0029
      9 C         138.7631  141.2545  159.6900 C.ar    1  UNL1        0.0199
     10 C         139.7979  138.0464  157.5954 C.3     1  UNL1        0.0289
     11 C         141.2146  137.9190  157.1191 C.3     1  UNL1        0.0367
     12 C         142.2666  138.8552  157.6356 C.3     1  UNL1        0.1426
     13 O         143.3520  138.3415  158.5344 O.3     1  UNL1       -0.3511
     14 C         142.9982  137.6275  159.8052 C.3     1  UNL1        0.1729
     15 C         143.1755  138.3154  161.1263 C.3     1  UNL1        0.1606
     16 C         144.0739  139.5118  161.2343 C.3     1  UNL1        0.1047
     17 N         144.2511  140.1997  162.5555 N.3     1  UNL1       -0.2672
     18 C         145.1495  141.3960  162.6635 C.3     1  UNL1        0.0898
     19 C         143.5301  139.6912  163.7685 C.3     1  UNL1        0.1047
     20 C         142.6317  138.4949  163.6605 C.3     1  UNL1        0.1595
     21 O         142.4544  137.8070  162.3394 O.3     1  UNL1       -0.3508
     22 N         138.1843  142.4926  163.4158 N.pl3   1  UNL1       -0.2152
     23 H         137.5105  143.2040  163.3199 H       1  UNL1        0.1737
     24 C         139.6237  143.4418  165.3593 C.ar    1  UNL1       -0.0074
     25 C         140.3276  143.2473  166.6695 C.ar    1  UNL1       -0.0014
     26 C         140.2961  141.9090  167.3464 C.ar    1  UNL1        0.0207
     27 C         139.5607  140.7654  166.7131 C.ar    1  UNL1        0.1036
     28 N         139.3571  139.3425  167.1420 N.ar    1  UNL1       -0.1692
     29 N         138.5273  138.6576  166.0968 N.ar    1  UNL1       -0.2473
     30 C         138.0845  137.2247  166.1220 C.3     1  UNL1        0.1538
     31 C         138.2181  139.6572  165.0220 C.ar    1  UNL1        0.0979
     32 C         138.8567  140.9599  165.4029 C.ar    1  UNL1        0.0524
     33 C         138.8883  142.2981  164.7260 C.ar    1  UNL1        0.0637
     34 C         139.6552  144.7800  164.6823 C.3     1  UNL1        0.0276
     35 C         140.2626  145.5570  162.2787 C.3     1  UNL1        0.0003
     36 C         140.6863  145.0643  163.6307 C.3     1  UNL1        0.0044
     37 C         142.1411  144.8560  163.9309 C.3     1  UNL1        0.0003
@<TRIPOS>BOND
     1    35    36    1
     2    36    37    1
     3    36    34    1
     4    34    24    1
     5    24    25   ar
     6    25    26   ar
     7    26    27   ar
     8    27    28   ar
     9    28    29   ar
    10    29    30    1
    11    29    31   ar
    12    31    32   ar
    13    32    33   ar
    14    33    22    1
    15    22     1    1
    16     1     2    2
    17     1     3    2
    18     1     4    1
    19     4     5   ar
    20     5     6   ar
    21     6     7   ar
    22     7    10    1
    23    10    11    1
    24    11    12    1
    25    12    13    1
    26    13    14    1
    27    15    14    1
    28    15    16    1
    29    16    17    1
    30    17    18    1
    31    17    19    1
    32    19    20    1
    33    20    21    1
    34     7     8   ar
    35     8     9   ar
    36    33    24   ar
    37     9     4   ar
    38    32    27   ar
    39    21    15    1
    40    22    23    1
@<TRIPOS>MOLECULE
*****
 37 40 0 0 0
SMALL
GASTEIGER

@<TRIPOS>ATOM
      1 S         143.3002  138.6844  160.6584 S.O2    1  UNL1        0.0736
      2 O         142.4779  137.4299  160.6445 O.2     1  UNL1       -0.1499
      3 O         144.1225  139.9389  160.6723 O.2     1  UNL1       -0.1499
      4 C         143.2231  138.7183  162.1560 C.ar    1  UNL1        0.1251
      5 C         144.2752  139.4396  162.9451 C.ar    1  UNL1        0.0199
      6 C         144.1980  139.4735  164.4427 C.ar    1  UNL1       -0.0029
      7 C         143.0688  138.7860  165.1514 C.ar    1  UNL1       -0.0220
      8 C         142.0166  138.0646  164.3622 C.ar    1  UNL1       -0.0029
      9 C         142.0937  138.0307  162.8646 C.ar    1  UNL1        0.0199
     10 C         142.9916  138.8199  166.6489 C.3     1  UNL1        0.0289
     11 C         142.4485  140.0329  167.3447 C.3     1  UNL1        0.0367
     12 C         141.1057  139.9771  168.0107 C.3     1  UNL1        0.1426
     13 O         139.8767  140.3907  167.2568 O.3     1  UNL1       -0.3511
     14 C         139.1781  139.4080  166.3644 C.3     1  UNL1        0.1729
     15 C         138.7204  139.8283  164.9992 C.3     1  UNL1        0.1606
     16 C         138.4300  141.2727  164.7172 C.3     1  UNL1        0.1047
     17 N         137.9723  141.6929  163.3518 N.3     1  UNL1       -0.2672
     18 C         137.6819  143.1373  163.0698 C.3     1  UNL1        0.0898
     19 C         137.8051  140.6689  162.2687 C.3     1  UNL1        0.1047
     20 C         138.0955  139.2245  162.5508 C.3     1  UNL1        0.1595
     21 O         138.5532  138.8043  163.9160 O.3     1  UNL1       -0.3508
     22 N         143.3773  138.6505  159.1608 N.pl3   1  UNL1       -0.2152
     23 H         144.2538  138.6600  158.7127 H       1  UNL1        0.1737
     24 C         141.8823  137.4634  157.3985 C.ar    1  UNL1       -0.0074
     25 C         140.6239  137.4149  156.5836 C.ar    1  UNL1       -0.0014
     26 C         139.6020  138.5050  156.7161 C.ar    1  UNL1        0.0207
     27 C         139.8387  139.6436  157.6635 C.ar    1  UNL1        0.1036
     28 N         139.0186  140.8524  158.0046 N.ar    1  UNL1       -0.1692
     29 N         139.7702  141.6479  159.0304 N.ar    1  UNL1       -0.2473
     30 C         139.3169  142.9347  159.6539 C.3     1  UNL1        0.1538
     31 C         141.0548  140.9309  159.3232 C.ar    1  UNL1        0.0979
     32 C         141.0971  139.6921  158.4784 C.ar    1  UNL1        0.0524
     33 C         142.1189  138.6020  158.3459 C.ar    1  UNL1        0.0637
     34 C         142.9042  136.3733  157.2660 C.3     1  UNL1        0.0276
     35 C         144.3650  137.2993  155.3274 C.3     1  UNL1        0.0003
     36 C         143.6145  136.1658  155.9613 C.3     1  UNL1        0.0044
     37 C         143.5744  134.8248  155.2903 C.3     1  UNL1        0.0003
@<TRIPOS>BOND
     1    35    36    1
     2    36    37    1
     3    36    34    1
     4    34    24    1
     5    24    25   ar
     6    25    26   ar
     7    26    27   ar
     8    27    28   ar
     9    28    29   ar
    10    29    30    1
    11    29    31   ar
    12    31    32   ar
    13    32    33   ar
    14    33    22    1
    15    22     1    1
    16     1     2    2
    17     1     3    2
    18     1     4    1
    19     4     5   ar
    20     5     6   ar
    21     6     7   ar
    22     7    10    1
    23    10    11    1
    24    11    12    1
    25    12    13    1
    26    13    14    1
    27    15    14    1
    28    15    16    1
    29    16    17    1
    30    17    18    1
    31    17    19    1
    32    19    20    1
    33    20    21    1
    34     7     8   ar
    35     8     9   ar
    36    33    24   ar
    37     9     4   ar
    38    32    27   ar
    39    21    15    1
    40    22    23    1
@<TRIPOS>MOLECULE
*****
 37 40 0 0 0
SMALL
GASTEIGER

@<TRIPOS>ATOM
      1 S         142.6295  139.9057  164.2946 S.O2    1  UNL1        0.0736
      2 O         143.0795  138.6351  163.6365 O.2     1  UNL1       -0.1499
      3 O         142.1794  141.1763  164.9528 O.2     1  UNL1       -0.1499
      4 C         142.9079  140.6601  163.0284 C.ar    1  UNL1        0.1251
      5 C         144.2538  141.2846  162.8079 C.ar    1  UNL1        0.0199
      6 C         144.5322  142.0391  161.5417 C.ar    1  UNL1       -0.0029
      7 C         143.4648  142.1691  160.4960 C.ar    1  UNL1       -0.0220
      8 C         142.1188  141.5446  160.7165 C.ar    1  UNL1       -0.0029
      9 C         141.8404  140.7901  161.9827 C.ar    1  UNL1        0.0199
     10 C         143.7431  142.9235  159.2298 C.3     1  UNL1        0.0289
     11 C         142.6267  143.2203  158.2728 C.3     1  UNL1        0.0367
     12 C         142.2294  144.6410  158.0013 C.3     1  UNL1        0.1426
     13 O         141.8956  145.5574  159.1410 O.3     1  UNL1       -0.3511
     14 C         140.6598  145.3197  159.9573 C.3     1  UNL1        0.1729
     15 C         140.7750  145.0196  161.4224 C.3     1  UNL1        0.1606
     16 C         139.5401  144.9308  162.2692 C.3     1  UNL1        0.1047
     17 N         139.6554  144.6306  163.7344 N.3     1  UNL1       -0.2672
     18 C         138.4205  144.5418  164.5812 C.3     1  UNL1        0.0898
     19 C         141.0056  144.4193  164.3526 C.3     1  UNL1        0.1047
     20 C         142.2405  144.5081  163.5059 C.3     1  UNL1        0.1595
     21 O         142.1252  144.8082  162.0408 O.3     1  UNL1       -0.3508
     22 N         142.3511  139.1512  165.5608 N.pl3   1  UNL1       -0.2152
     23 H         143.0448  138.5722  165.9515 H       1  UNL1        0.1737
     24 C         139.7729  138.8330  165.5200 C.ar    1  UNL1       -0.0074
     25 C         138.4375  138.9607  166.1909 C.ar    1  UNL1       -0.0014
     26 C         138.3447  139.5346  167.5737 C.ar    1  UNL1        0.0207
     27 C         139.5874  139.9806  168.2855 C.ar    1  UNL1        0.1036
     28 N         139.8061  140.5801  169.6430 N.ar    1  UNL1       -0.1692
     29 N         141.2767  140.8228  169.8110 N.ar    1  UNL1       -0.2473
     30 C         141.9407  141.4117  171.0203 C.3     1  UNL1        0.1538
     31 C         141.9669  140.3734  168.5574 C.ar    1  UNL1        0.0979
     32 C         140.9228  139.8528  167.6146 C.ar    1  UNL1        0.0524
     33 C         141.0156  139.2790  166.2318 C.ar    1  UNL1        0.0637
     34 C         139.8657  138.2591  164.1371 C.3     1  UNL1        0.0276
     35 C         138.5821  137.8731  161.9116 C.3     1  UNL1        0.0003
     36 C         138.9655  138.7696  163.0514 C.3     1  UNL1        0.0044
     37 C         138.4485  140.1768  163.1053 C.3     1  UNL1        0.0003
@<TRIPOS>BOND
     1    35    36    1
     2    36    37    1
     3    36    34    1
     4    34    24    1
     5    24    25   ar
     6    25    26   ar
     7    26    27   ar
     8    27    28   ar
     9    28    29   ar
    10    29    30    1
    11    29    31   ar
    12    31    32   ar
    13    32    33   ar
    14    33    22    1
    15    22     1    1
    16     1     2    2
    17     1     3    2
    18     1     4    1
    19     4     5   ar
    20     5     6   ar
    21     6     7   ar
    22     7    10    1
    23    10    11    1
    24    11    12    1
    25    12    13    1
    26    13    14    1
    27    15    14    1
    28    15    16    1
    29    16    17    1
    30    17    18    1
    31    17    19    1
    32    19    20    1
    33    20    21    1
    34     7     8   ar
    35     8     9   ar
    36    33    24   ar
    37     9     4   ar
    38    32    27   ar
    39    21    15    1
    40    22    23    1
@<TRIPOS>MOLECULE
*****
 37 40 0 0 0
SMALL
GASTEIGER

@<TRIPOS>ATOM
      1 S         139.1765  141.2411  162.0442 S.O2    1  UNL1        0.0736
      2 O         138.9662  142.6377  161.5390 O.2     1  UNL1       -0.1499
      3 O         139.3868  139.8444  162.5495 O.2     1  UNL1       -0.1499
      4 C         139.5732  140.8022  160.6658 C.ar    1  UNL1        0.1251
      5 C         140.5075  141.6456  159.8499 C.ar    1  UNL1        0.0199
      6 C         140.9042  141.2067  158.4715 C.ar    1  UNL1       -0.0029
      7 C         140.3666  139.9243  157.9090 C.ar    1  UNL1       -0.0220
      8 C         139.4323  139.0808  158.7249 C.ar    1  UNL1       -0.0029
      9 C         139.0356  139.5197  160.1033 C.ar    1  UNL1        0.0199
     10 C         140.7633  139.4853  156.5307 C.3     1  UNL1        0.0289
     11 C         142.1788  139.0738  156.2529 C.3     1  UNL1        0.0367
     12 C         142.8586  138.0769  157.1441 C.3     1  UNL1        0.1426
     13 O         143.3085  138.4820  158.5165 O.3     1  UNL1       -0.3511
     14 C         142.8887  137.6780  159.7112 C.3     1  UNL1        0.1729
     15 C         143.0260  138.2546  161.0891 C.3     1  UNL1        0.1606
     16 C         144.0091  139.3581  161.3458 C.3     1  UNL1        0.1047
     17 N         144.1463  139.9347  162.7238 N.3     1  UNL1       -0.2672
     18 C         145.1295  141.0381  162.9806 C.3     1  UNL1        0.0898
     19 C         143.3005  139.4078  163.8449 C.3     1  UNL1        0.1047
     20 C         142.3174  138.3044  163.5882 C.3     1  UNL1        0.1595
     21 O         142.1802  137.7278  162.2103 O.3     1  UNL1       -0.3508
     22 N         138.7798  141.6800  163.4226 N.pl3   1  UNL1       -0.2152
     23 H         137.8811  142.0489  163.5821 H       1  UNL1        0.1737
     24 C         139.4370  140.6650  165.7221 C.ar    1  UNL1       -0.0074
     25 C         140.4095  140.5418  166.8574 C.ar    1  UNL1       -0.0014
     26 C         141.6974  141.3103  166.8286 C.ar    1  UNL1        0.0207
     27 C         142.0127  142.2020  165.6644 C.ar    1  UNL1        0.1036
     28 N         143.1936  143.0756  165.3601 N.ar    1  UNL1       -0.1692
     29 N         142.9508  143.7387  164.0367 N.ar    1  UNL1       -0.2473
     30 C         143.8764  144.6972  163.3479 C.3     1  UNL1        0.1538
     31 C         141.6199  143.2750  163.5231 C.ar    1  UNL1        0.0979
     32 C         141.0402  142.3253  164.5290 C.ar    1  UNL1        0.0524
     33 C         139.7523  141.5568  164.5579 C.ar    1  UNL1        0.0637
     34 C         138.1491  139.8965  165.7509 C.3     1  UNL1        0.0276
     35 C         138.9849  137.4909  165.2370 C.3     1  UNL1        0.0003
     36 C         138.1580  138.4297  166.0645 C.3     1  UNL1        0.0044
     37 C         137.3399  137.9017  167.2056 C.3     1  UNL1        0.0003
@<TRIPOS>BOND
     1    35    36    1
     2    36    37    1
     3    36    34    1
     4    34    24    1
     5    24    25   ar
     6    25    26   ar
     7    26    27   ar
     8    27    28   ar
     9    28    29   ar
    10    29    30    1
    11    29    31   ar
    12    31    32   ar
    13    32    33   ar
    14    33    22    1
    15    22     1    1
    16     1     2    2
    17     1     3    2
    18     1     4    1
    19     4     5   ar
    20     5     6   ar
    21     6     7   ar
    22     7    10    1
    23    10    11    1
    24    11    12    1
    25    12    13    1
    26    13    14    1
    27    15    14    1
    28    15    16    1
    29    16    17    1
    30    17    18    1
    31    17    19    1
    32    19    20    1
    33    20    21    1
    34     7     8   ar
    35     8     9   ar
    36    33    24   ar
    37     9     4   ar
    38    32    27   ar
    39    21    15    1
    40    22    23    1
@<TRIPOS>MOLECULE
*****
 37 40 0 0 0
SMALL
GASTEIGER

@<TRIPOS>ATOM
      1 S         139.2375  139.1242  160.9263 S.O2    1  UNL1        0.0736
      2 O         140.5340  138.4019  161.1441 O.2     1  UNL1       -0.1499
      3 O         137.9410  139.8466  160.7083 O.2     1  UNL1       -0.1499
      4 C         138.9493  139.0504  162.3965 C.ar    1  UNL1        0.1251
      5 C         139.3100  137.8173  163.1705 C.ar    1  UNL1        0.0199
      6 C         139.0218  137.7435  164.6407 C.ar    1  UNL1       -0.0029
      7 C         138.3729  138.9029  165.3369 C.ar    1  UNL1       -0.0220
      8 C         138.0122  140.1361  164.5628 C.ar    1  UNL1       -0.0029
      9 C         138.3004  140.2099  163.0926 C.ar    1  UNL1        0.0199
     10 C         138.0847  138.8291  166.8070 C.3     1  UNL1        0.0289
     11 C         138.9218  139.6111  167.7755 C.3     1  UNL1        0.0367
     12 C         140.1031  140.3939  167.2840 C.3     1  UNL1        0.1426
     13 O         141.4851  139.8245  167.4097 O.3     1  UNL1       -0.3511
     14 C         142.1706  139.2470  166.2070 C.3     1  UNL1        0.1729
     15 C         143.1977  140.0540  165.4695 C.3     1  UNL1        0.1606
     16 C         143.3043  141.5309  165.7086 C.3     1  UNL1        0.1047
     17 N         144.3315  142.3379  164.9711 N.3     1  UNL1       -0.2672
     18 C         144.4380  143.8149  165.2103 C.3     1  UNL1        0.0898
     19 C         145.2520  141.6678  163.9947 C.3     1  UNL1        0.1047
     20 C         145.1454  140.1908  163.7556 C.3     1  UNL1        0.1595
     21 O         144.1183  139.3839  164.4930 O.3     1  UNL1       -0.3508
     22 N         139.5257  139.1980  159.4561 N.pl3   1  UNL1       -0.2152
     23 H         138.8676  138.8577  158.8078 H       1  UNL1        0.1737
     24 C         141.1629  141.2102  159.3114 C.ar    1  UNL1       -0.0074
     25 C         142.4537  141.8025  158.8291 C.ar    1  UNL1       -0.0014
     26 C         143.3984  140.9750  158.0088 C.ar    1  UNL1        0.0207
     27 C         143.0522  139.5551  157.6710 C.ar    1  UNL1        0.1036
     28 N         143.7797  138.5042  156.8860 N.ar    1  UNL1       -0.1692
     29 N         142.9385  137.2623  156.8833 N.ar    1  UNL1       -0.2473
     30 C         143.2840  135.9648  156.2147 C.3     1  UNL1        0.1538
     31 C         141.6910  137.5457  157.6666 C.ar    1  UNL1        0.0979
     32 C         141.7613  138.9628  158.1534 C.ar    1  UNL1        0.0524
     33 C         140.8166  139.7903  158.9736 C.ar    1  UNL1        0.0637
     34 C         140.2181  142.0377  160.1317 C.3     1  UNL1        0.0276
     35 C         141.6116  141.7512  162.3056 C.3     1  UNL1        0.0003
     36 C         140.6393  142.5410  161.4805 C.3     1  UNL1        0.0044
     37 C         140.0883  143.8341  162.0042 C.3     1  UNL1        0.0003
@<TRIPOS>BOND
     1    35    36    1
     2    36    37    1
     3    36    34    1
     4    34    24    1
     5    24    25   ar
     6    25    26   ar
     7    26    27   ar
     8    27    28   ar
     9    28    29   ar
    10    29    30    1
    11    29    31   ar
    12    31    32   ar
    13    32    33   ar
    14    33    22    1
    15    22     1    1
    16     1     2    2
    17     1     3    2
    18     1     4    1
    19     4     5   ar
    20     5     6   ar
    21     6     7   ar
    22     7    10    1
    23    10    11    1
    24    11    12    1
    25    12    13    1
    26    13    14    1
    27    15    14    1
    28    15    16    1
    29    16    17    1
    30    17    18    1
    31    17    19    1
    32    19    20    1
    33    20    21    1
    34     7     8   ar
    35     8     9   ar
    36    33    24   ar
    37     9     4   ar
    38    32    27   ar
    39    21    15    1
    40    22    23    1
