@<TRIPOS>MOLECULE
*****
 34 38 0 0 0
SMALL
GASTEIGER

@<TRIPOS>ATOM
      1 C         144.6414  137.9626  155.1570 C.3     1  UNL1        0.0719
      2 C         143.3824  138.0144  155.9709 C.ar    1  UNL1        0.1230
      3 N         143.3693  138.7334  157.2872 N.ar    1  UNL1       -0.2306
      4 C         142.1102  138.7851  158.1011 C.ar    1  UNL1        0.1051
      5 C         142.0971  139.5041  159.4174 C.ar    1  UNL1        0.0256
      6 C         140.8382  139.5558  160.2312 C.ar    1  UNL1        0.0597
      7 C         139.5923  138.8886  159.7286 C.ar    1  UNL1        0.2299
      8 N         139.6054  138.1696  158.4122 N.ar    1  UNL1       -0.2050
      9 C         140.8644  138.1179  157.5985 C.ar    1  UNL1        0.1579
     10 C         140.8775  137.3989  156.2820 C.ar    1  UNL1        0.2810
     11 O         139.6317  136.7316  155.7794 O.2     1  UNL1       -0.2652
     12 N         142.1365  137.3471  155.4683 N.ar    1  UNL1       -0.2827
     13 O         138.3333  138.9403  160.5424 O.3     1  UNL1       -0.4346
     14 C         138.4093  139.0936  162.0326 C.ar    1  UNL1        0.1648
     15 C         138.6767  137.8971  162.8969 C.ar    1  UNL1        0.0414
     16 C         138.7527  138.0504  164.3872 C.ar    1  UNL1        0.0329
     17 C         138.5612  139.4000  165.0131 C.ar    1  UNL1        0.1417
     18 F         138.6372  139.5533  166.5032 F       1  UNL1       -0.2041
     19 C         138.2937  140.5965  164.1488 C.ar    1  UNL1        0.0482
     20 C         138.1022  141.9461  164.7746 C.ar    1  UNL1        0.0054
     21 C         137.8347  143.1425  163.9103 C.ar    1  UNL1        0.0208
     22 C         137.7587  142.9893  162.4201 C.ar    1  UNL1        0.0989
     23 N         137.9502  141.6397  161.7943 N.ar    1  UNL1       -0.2407
     24 C         138.2177  140.4432  162.6586 C.ar    1  UNL1        0.1179
     25 C         142.1497  136.6281  154.1518 C.3     1  UNL1        0.1115
     26 C         142.3985  135.1496  154.1073 C.3     1  UNL1        0.0388
     27 C         141.8462  134.3298  152.9790 C.3     1  UNL1        0.0048
     28 C         142.0950  132.8512  152.9344 C.3     1  UNL1        0.0174
     29 C         142.8961  132.1925  154.0182 C.3     1  UNL1        0.0720
     30 N         143.4484  133.0123  155.1464 N.3     1  UNL1       -0.2739
     31 C         143.1996  134.4909  155.1909 C.3     1  UNL1        0.0739
     32 C         144.2494  132.3536  156.2300 C.3     1  UNL1        0.0576
     33 C         144.9048  131.0281  155.9780 C.3     1  UNL1        0.0173
     34 C         144.3952  133.0204  157.5658 C.3     1  UNL1        0.0173
@<TRIPOS>BOND
     1     1     2    1
     2     2     3   ar
     3     3     4   ar
     4     4     5   ar
     5     5     6   ar
     6     6     7   ar
     7     7    13    1
     8    13    14    1
     9    14    15   ar
    10    15    16   ar
    11    16    17   ar
    12    17    18    1
    13    17    19   ar
    14    19    20   ar
    15    20    21   ar
    16    21    22   ar
    17    22    23   ar
    18    23    24   ar
    19     7     8   ar
    20     8     9   ar
    21     9    10   ar
    22    10    11    2
    23    10    12   ar
    24    12    25    1
    25    26    25    1
    26    26    27    1
    27    27    28    1
    28    28    29    1
    29    29    30    1
    30    30    32    1
    31    32    33    1
    32    32    34    1
    33    30    31    1
    34    12     2   ar
    35    31    26    1
    36     9     4   ar
    37    24    14   ar
    38    24    19   ar
@<TRIPOS>MOLECULE
*****
 34 38 0 0 0
SMALL
GASTEIGER

@<TRIPOS>ATOM
      1 C         144.6653  137.9961  155.1572 C.3     1  UNL1        0.0719
      2 C         143.4065  138.0331  155.9721 C.ar    1  UNL1        0.1230
      3 N         143.3876  138.7475  157.2909 N.ar    1  UNL1       -0.2306
      4 C         142.1287  138.7845  158.1058 C.ar    1  UNL1        0.1051
      5 C         142.1098  139.4988  159.4246 C.ar    1  UNL1        0.0256
      6 C         140.8510  139.5358  160.2395 C.ar    1  UNL1        0.0597
      7 C         139.6111  138.8584  159.7355 C.ar    1  UNL1        0.2299
      8 N         139.6301  138.1440  158.4167 N.ar    1  UNL1       -0.2050
      9 C         140.8889  138.1071  157.6019 C.ar    1  UNL1        0.1579
     10 C         140.9079  137.3927  156.2830 C.ar    1  UNL1        0.2810
     11 O         139.6681  136.7153  155.7791 O.2     1  UNL1       -0.2652
     12 N         142.1667  137.3557  155.4682 N.ar    1  UNL1       -0.2827
     13 O         138.3523  138.8954  160.5505 O.3     1  UNL1       -0.4346
     14 C         138.1963  139.9103  161.6439 C.ar    1  UNL1        0.1648
     15 C         137.8945  141.3396  161.3030 C.ar    1  UNL1        0.0414
     16 C         137.7384  142.3545  162.3965 C.ar    1  UNL1        0.0329
     17 C         137.8842  141.9402  163.8307 C.ar    1  UNL1        0.1417
     18 F         137.7281  142.9551  164.9241 F       1  UNL1       -0.2041
     19 C         138.1860  140.5110  164.1716 C.ar    1  UNL1        0.0482
     20 C         138.3317  140.0966  165.6058 C.ar    1  UNL1        0.0054
     21 C         138.6335  138.6674  165.9466 C.ar    1  UNL1        0.0208
     22 C         138.7895  137.6525  164.8532 C.ar    1  UNL1        0.0989
     23 N         138.6438  138.0668  163.4190 N.ar    1  UNL1       -0.2407
     24 C         138.3420  139.4960  163.0782 C.ar    1  UNL1        0.1179
     25 C         142.1857  136.6413  154.1493 C.3     1  UNL1        0.1115
     26 C         142.3938  135.1565  154.1035 C.3     1  UNL1        0.0388
     27 C         141.7763  134.3462  153.0026 C.3     1  UNL1        0.0048
     28 C         141.9844  132.8614  152.9569 C.3     1  UNL1        0.0174
     29 C         142.8101  132.1869  154.0121 C.3     1  UNL1        0.0720
     30 N         143.4276  132.9973  155.1130 N.3     1  UNL1       -0.2739
     31 C         143.2195  134.4821  155.1587 C.3     1  UNL1        0.0739
     32 C         144.2533  132.3228  156.1681 C.3     1  UNL1        0.0576
     33 C         144.4587  132.9863  157.4976 C.3     1  UNL1        0.0173
     34 C         144.8735  130.9849  155.8938 C.3     1  UNL1        0.0173
@<TRIPOS>BOND
     1     1     2    1
     2     2     3   ar
     3     3     4   ar
     4     4     5   ar
     5     5     6   ar
     6     6     7   ar
     7     7    13    1
     8    13    14    1
     9    14    15   ar
    10    15    16   ar
    11    16    17   ar
    12    17    18    1
    13    17    19   ar
    14    19    20   ar
    15    20    21   ar
    16    21    22   ar
    17    22    23   ar
    18    23    24   ar
    19     7     8   ar
    20     8     9   ar
    21     9    10   ar
    22    10    11    2
    23    10    12   ar
    24    12    25    1
    25    26    25    1
    26    26    27    1
    27    27    28    1
    28    28    29    1
    29    29    30    1
    30    30    32    1
    31    32    33    1
    32    32    34    1
    33    30    31    1
    34    12     2   ar
    35    31    26    1
    36     9     4   ar
    37    24    14   ar
    38    24    19   ar
@<TRIPOS>MOLECULE
*****
 34 38 0 0 0
SMALL
GASTEIGER

@<TRIPOS>ATOM
      1 C         139.2914  136.8842  155.1624 C.3     1  UNL1        0.0719
      2 C         140.3692  137.3927  156.0735 C.ar    1  UNL1        0.1230
      3 N         140.0085  137.9923  157.4003 N.ar    1  UNL1       -0.2306
      4 C         141.0863  138.5008  158.3114 C.ar    1  UNL1        0.1051
      5 C         140.7256  139.1003  159.6381 C.ar    1  UNL1        0.0256
      6 C         141.8033  139.6088  160.5491 C.ar    1  UNL1        0.0597
      7 C         143.2417  139.5177  160.1334 C.ar    1  UNL1        0.2299
      8 N         143.6023  138.9182  158.8066 N.ar    1  UNL1       -0.2050
      9 C         142.5246  138.4097  157.8956 C.ar    1  UNL1        0.1579
     10 C         142.8852  137.8101  156.5687 C.ar    1  UNL1        0.2810
     11 O         144.3235  137.7190  156.1529 O.2     1  UNL1       -0.2652
     12 N         141.8075  137.3016  155.6577 N.ar    1  UNL1       -0.2827
     13 O         144.3194  140.0262  161.0444 O.3     1  UNL1       -0.4346
     14 C         144.0321  140.2371  162.5015 C.ar    1  UNL1        0.1648
     15 C         143.7943  139.0577  163.3973 C.ar    1  UNL1        0.0414
     16 C         143.5070  139.2686  164.8544 C.ar    1  UNL1        0.0329
     17 C         143.4574  140.6588  165.4156 C.ar    1  UNL1        0.1417
     18 F         143.1701  140.8696  166.8726 F       1  UNL1       -0.2041
     19 C         143.6952  141.8381  164.5197 C.ar    1  UNL1        0.0482
     20 C         143.6457  143.2283  165.0808 C.ar    1  UNL1        0.0054
     21 C         143.8834  144.4077  164.1849 C.ar    1  UNL1        0.0208
     22 C         144.1708  144.1968  162.7279 C.ar    1  UNL1        0.0989
     23 N         144.2203  142.8066  162.1668 N.ar    1  UNL1       -0.2407
     24 C         143.9825  141.6273  163.0627 C.ar    1  UNL1        0.1179
     25 C         142.1681  136.7020  154.3308 C.3     1  UNL1        0.1115
     26 C         142.4038  135.2252  154.2144 C.3     1  UNL1        0.0388
     27 C         141.8285  134.4628  153.0577 C.3     1  UNL1        0.0048
     28 C         142.0642  132.9860  152.9413 C.3     1  UNL1        0.0174
     29 C         142.8752  132.2716  153.9815 C.3     1  UNL1        0.0720
     30 N         143.4505  133.0340  155.1381 N.3     1  UNL1       -0.2739
     31 C         143.2148  134.5108  155.2545 C.3     1  UNL1        0.0739
     32 C         144.2614  132.3197  156.1782 C.3     1  UNL1        0.0576
     33 C         144.4634  132.9405  157.5287 C.3     1  UNL1        0.0173
     34 C         144.8705  130.9844  155.8679 C.3     1  UNL1        0.0173
@<TRIPOS>BOND
     1     1     2    1
     2     2     3   ar
     3     3     4   ar
     4     4     5   ar
     5     5     6   ar
     6     6     7   ar
     7     7    13    1
     8    13    14    1
     9    14    15   ar
    10    15    16   ar
    11    16    17   ar
    12    17    18    1
    13    17    19   ar
    14    19    20   ar
    15    20    21   ar
    16    21    22   ar
    17    22    23   ar
    18    23    24   ar
    19     7     8   ar
    20     8     9   ar
    21     9    10   ar
    22    10    11    2
    23    10    12   ar
    24    12    25    1
    25    26    25    1
    26    26    27    1
    27    27    28    1
    28    28    29    1
    29    29    30    1
    30    30    32    1
    31    32    33    1
    32    32    34    1
    33    30    31    1
    34    12     2   ar
    35    31    26    1
    36     9     4   ar
    37    24    14   ar
    38    24    19   ar
@<TRIPOS>MOLECULE
*****
 34 38 0 0 0
SMALL
GASTEIGER

@<TRIPOS>ATOM
      1 C         138.6648  140.4793  159.3395 C.3     1  UNL1        0.0719
      2 C         139.5535  139.4734  158.6697 C.ar    1  UNL1        0.1230
      3 N         139.0872  138.7679  157.4308 N.ar    1  UNL1       -0.2306
      4 C         139.9759  137.7621  156.7610 C.ar    1  UNL1        0.1051
      5 C         139.5096  137.0566  155.5221 C.ar    1  UNL1        0.0256
      6 C         140.3983  136.0508  154.8524 C.ar    1  UNL1        0.0597
      7 C         141.7532  135.7504  155.4216 C.ar    1  UNL1        0.2299
      8 N         142.2195  136.4559  156.6605 N.ar    1  UNL1       -0.2050
      9 C         141.3308  137.4617  157.3302 C.ar    1  UNL1        0.1579
     10 C         141.7971  138.1672  158.5691 C.ar    1  UNL1        0.2810
     11 O         143.1520  137.8669  159.1383 O.2     1  UNL1       -0.2652
     12 N         140.9084  139.1730  159.2388 N.ar    1  UNL1       -0.2827
     13 O         142.6419  134.7445  154.7518 O.3     1  UNL1       -0.4346
     14 C         142.4073  133.2782  154.9630 C.ar    1  UNL1        0.1648
     15 C         141.3706  132.5599  154.1509 C.ar    1  UNL1        0.0414
     16 C         141.1360  131.0934  154.3621 C.ar    1  UNL1        0.0329
     17 C         141.9380  130.3453  155.3854 C.ar    1  UNL1        0.1417
     18 F         141.7034  128.8790  155.5965 F       1  UNL1       -0.2041
     19 C         142.9746  131.0636  156.1975 C.ar    1  UNL1        0.0482
     20 C         143.7766  130.3155  157.2207 C.ar    1  UNL1        0.0054
     21 C         144.8132  131.0338  158.0328 C.ar    1  UNL1        0.0208
     22 C         145.0479  132.5002  157.8216 C.ar    1  UNL1        0.0989
     23 N         144.2459  133.2483  156.7984 N.ar    1  UNL1       -0.2407
     24 C         143.2093  132.5300  155.9863 C.ar    1  UNL1        0.1179
     25 C         141.3747  139.8786  160.4778 C.3     1  UNL1        0.1115
     26 C         141.4073  139.1499  161.7885 C.3     1  UNL1        0.0388
     27 C         140.2781  138.2383  162.1681 C.3     1  UNL1        0.0048
     28 C         140.3107  137.5096  163.4788 C.3     1  UNL1        0.0174
     29 C         141.4725  137.6925  164.4099 C.3     1  UNL1        0.0720
     30 N         142.6016  138.6041  164.0303 N.3     1  UNL1       -0.2739
     31 C         142.5690  139.3328  162.7196 C.3     1  UNL1        0.0739
     32 C         143.7633  138.7870  164.9614 C.3     1  UNL1        0.0576
     33 C         143.6763  138.2934  166.3752 C.3     1  UNL1        0.0173
     34 C         145.0121  139.4635  164.4787 C.3     1  UNL1        0.0173
@<TRIPOS>BOND
     1     1     2    1
     2     2     3   ar
     3     3     4   ar
     4     4     5   ar
     5     5     6   ar
     6     6     7   ar
     7     7    13    1
     8    13    14    1
     9    14    15   ar
    10    15    16   ar
    11    16    17   ar
    12    17    18    1
    13    17    19   ar
    14    19    20   ar
    15    20    21   ar
    16    21    22   ar
    17    22    23   ar
    18    23    24   ar
    19     7     8   ar
    20     8     9   ar
    21     9    10   ar
    22    10    11    2
    23    10    12   ar
    24    12    25    1
    25    26    25    1
    26    26    27    1
    27    27    28    1
    28    28    29    1
    29    29    30    1
    30    30    32    1
    31    32    33    1
    32    32    34    1
    33    30    31    1
    34    12     2   ar
    35    31    26    1
    36     9     4   ar
    37    24    14   ar
    38    24    19   ar
@<TRIPOS>MOLECULE
*****
 34 38 0 0 0
SMALL
GASTEIGER

@<TRIPOS>ATOM
      1 C         143.7213  145.1888  163.9893 C.3     1  UNL1        0.0719
      2 C         143.7438  143.9174  163.1936 C.ar    1  UNL1        0.1230
      3 N         143.6401  143.9667  161.6980 N.ar    1  UNL1       -0.2306
      4 C         143.6626  142.6953  160.9023 C.ar    1  UNL1        0.1051
      5 C         143.5590  142.7446  159.4067 C.ar    1  UNL1        0.0256
      6 C         143.5814  141.4732  158.6111 C.ar    1  UNL1        0.0597
      7 C         143.7074  140.1525  159.3111 C.ar    1  UNL1        0.2299
      8 N         143.8110  140.1032  160.8066 N.ar    1  UNL1       -0.2050
      9 C         143.7886  141.3746  161.6022 C.ar    1  UNL1        0.1579
     10 C         143.8922  141.3254  163.0979 C.ar    1  UNL1        0.2810
     11 O         144.0182  140.0047  163.7979 O.2     1  UNL1       -0.2652
     12 N         143.8698  142.5967  163.8935 N.ar    1  UNL1       -0.2827
     13 O         143.7298  138.8811  158.5154 O.3     1  UNL1       -0.4346
     14 C         142.4683  138.3667  157.8879 C.ar    1  UNL1        0.1648
     15 C         141.1392  138.9105  158.3214 C.ar    1  UNL1        0.0414
     16 C         139.8776  138.3960  157.6939 C.ar    1  UNL1        0.0329
     17 C         139.9450  137.3377  156.6331 C.ar    1  UNL1        0.1417
     18 F         138.6835  136.8232  156.0057 F       1  UNL1       -0.2041
     19 C         141.2741  136.7938  156.1996 C.ar    1  UNL1        0.0482
     20 C         141.3416  135.7355  155.1388 C.ar    1  UNL1        0.0054
     21 C         142.6706  135.1917  154.7054 C.ar    1  UNL1        0.0208
     22 C         143.9322  135.7061  155.3328 C.ar    1  UNL1        0.0989
     23 N         143.8647  136.7644  156.3936 N.ar    1  UNL1       -0.2407
     24 C         142.5357  137.3083  156.8271 C.ar    1  UNL1        0.1179
     25 C         143.9734  142.5475  165.3892 C.3     1  UNL1        0.1115
     26 C         142.7560  142.2576  166.2161 C.3     1  UNL1        0.0388
     27 C         141.3912  142.5660  165.6755 C.3     1  UNL1        0.0048
     28 C         140.1738  142.2761  166.5025 C.3     1  UNL1        0.0174
     29 C         140.3212  141.6778  167.8701 C.3     1  UNL1        0.0720
     30 N         141.6859  141.3693  168.4107 N.3     1  UNL1       -0.2739
     31 C         142.9033  141.6592  167.5837 C.3     1  UNL1        0.0739
     32 C         141.8332  140.7710  169.7782 C.3     1  UNL1        0.0576
     33 C         141.7390  141.6452  170.9935 C.3     1  UNL1        0.0173
     34 C         142.0748  139.2984  169.9305 C.3     1  UNL1        0.0173
@<TRIPOS>BOND
     1     1     2    1
     2     2     3   ar
     3     3     4   ar
     4     4     5   ar
     5     5     6   ar
     6     6     7   ar
     7     7    13    1
     8    13    14    1
     9    14    15   ar
    10    15    16   ar
    11    16    17   ar
    12    17    18    1
    13    17    19   ar
    14    19    20   ar
    15    20    21   ar
    16    21    22   ar
    17    22    23   ar
    18    23    24   ar
    19     7     8   ar
    20     8     9   ar
    21     9    10   ar
    22    10    11    2
    23    10    12   ar
    24    12    25    1
    25    26    25    1
    26    26    27    1
    27    27    28    1
    28    28    29    1
    29    29    30    1
    30    30    32    1
    31    32    33    1
    32    32    34    1
    33    30    31    1
    34    12     2   ar
    35    31    26    1
    36     9     4   ar
    37    24    14   ar
    38    24    19   ar
@<TRIPOS>MOLECULE
*****
 34 38 0 0 0
SMALL
GASTEIGER

@<TRIPOS>ATOM
      1 C         139.0922  137.0420  155.4784 C.3     1  UNL1        0.0719
      2 C         140.2028  137.4929  156.3803 C.ar    1  UNL1        0.1230
      3 N         139.8903  138.0167  157.7507 N.ar    1  UNL1       -0.2306
      4 C         141.0009  138.4676  158.6526 C.ar    1  UNL1        0.1051
      5 C         140.6884  138.9914  160.0229 C.ar    1  UNL1        0.0256
      6 C         141.7990  139.4423  160.9247 C.ar    1  UNL1        0.0597
      7 C         143.2220  139.3693  160.4562 C.ar    1  UNL1        0.2299
      8 N         143.5345  138.8455  159.0858 N.ar    1  UNL1       -0.2050
      9 C         142.4240  138.3947  158.1840 C.ar    1  UNL1        0.1579
     10 C         142.7364  137.8708  156.8136 C.ar    1  UNL1        0.2810
     11 O         144.1595  137.7979  156.3450 O.2     1  UNL1       -0.2652
     12 N         141.6259  137.4199  155.9118 N.ar    1  UNL1       -0.2827
     13 O         144.3326  139.8202  161.3580 O.3     1  UNL1       -0.4346
     14 C         144.2221  141.1253  162.0892 C.ar    1  UNL1        0.1648
     15 C         144.5434  142.4096  161.3840 C.ar    1  UNL1        0.0414
     16 C         144.4328  143.7147  162.1152 C.ar    1  UNL1        0.0329
     17 C         144.0009  143.7354  163.5515 C.ar    1  UNL1        0.1417
     18 F         143.8903  145.0404  164.2826 F       1  UNL1       -0.2041
     19 C         143.6795  142.4511  164.2567 C.ar    1  UNL1        0.0482
     20 C         143.2476  142.4718  165.6930 C.ar    1  UNL1        0.0054
     21 C         142.9263  141.1875  166.3981 C.ar    1  UNL1        0.0208
     22 C         143.0369  139.8824  165.6670 C.ar    1  UNL1        0.0989
     23 N         143.4688  139.8617  164.2307 N.ar    1  UNL1       -0.2407
     24 C         143.7901  141.1460  163.5255 C.ar    1  UNL1        0.1179
     25 C         141.9383  136.8961  154.5413 C.3     1  UNL1        0.1115
     26 C         142.2122  135.4349  154.3414 C.3     1  UNL1        0.0388
     27 C         141.6624  134.7265  153.1389 C.3     1  UNL1        0.0048
     28 C         141.9362  133.2653  152.9389 C.3     1  UNL1        0.0174
     29 C         142.7598  132.5126  153.9415 C.3     1  UNL1        0.0720
     30 N         143.3096  133.2210  155.1440 N.3     1  UNL1       -0.2739
     31 C         143.0357  134.6822  155.3439 C.3     1  UNL1        0.0739
     32 C         144.1331  132.4682  156.1465 C.3     1  UNL1        0.0576
     33 C         144.7660  131.1620  155.7679 C.3     1  UNL1        0.0173
     34 C         144.3238  133.0217  157.5276 C.3     1  UNL1        0.0173
@<TRIPOS>BOND
     1     1     2    1
     2     2     3   ar
     3     3     4   ar
     4     4     5   ar
     5     5     6   ar
     6     6     7   ar
     7     7    13    1
     8    13    14    1
     9    14    15   ar
    10    15    16   ar
    11    16    17   ar
    12    17    18    1
    13    17    19   ar
    14    19    20   ar
    15    20    21   ar
    16    21    22   ar
    17    22    23   ar
    18    23    24   ar
    19     7     8   ar
    20     8     9   ar
    21     9    10   ar
    22    10    11    2
    23    10    12   ar
    24    12    25    1
    25    26    25    1
    26    26    27    1
    27    27    28    1
    28    28    29    1
    29    29    30    1
    30    30    32    1
    31    32    33    1
    32    32    34    1
    33    30    31    1
    34    12     2   ar
    35    31    26    1
    36     9     4   ar
    37    24    14   ar
    38    24    19   ar
@<TRIPOS>MOLECULE
*****
 34 38 0 0 0
SMALL
GASTEIGER

@<TRIPOS>ATOM
      1 C         143.9868  144.2708  164.0395 C.3     1  UNL1        0.0719
      2 C         143.9706  143.1924  162.9969 C.ar    1  UNL1        0.1230
      3 N         143.9909  143.5557  161.5417 N.ar    1  UNL1       -0.2306
      4 C         143.9747  142.4773  160.4992 C.ar    1  UNL1        0.1051
      5 C         143.9949  142.8406  159.0440 C.ar    1  UNL1        0.0256
      6 C         143.9787  141.7623  158.0015 C.ar    1  UNL1        0.0597
      7 C         143.9423  140.3206  158.4142 C.ar    1  UNL1        0.2299
      8 N         143.9221  139.9573  159.8693 N.ar    1  UNL1       -0.2050
      9 C         143.9383  141.0357  160.9118 C.ar    1  UNL1        0.1579
     10 C         143.9181  140.6724  162.3671 C.ar    1  UNL1        0.2810
     11 O         143.8817  139.2307  162.7798 O.2     1  UNL1       -0.2652
     12 N         143.9342  141.7507  163.4096 N.ar    1  UNL1       -0.2827
     13 O         143.9261  139.2422  157.3716 O.3     1  UNL1       -0.4346
     14 C         142.6276  138.6099  156.9667 C.ar    1  UNL1        0.1648
     15 C         141.3420  139.3646  157.1327 C.ar    1  UNL1        0.0414
     16 C         140.0434  138.7322  156.7277 C.ar    1  UNL1        0.0329
     17 C         140.0305  137.3452  156.1568 C.ar    1  UNL1        0.1417
     18 F         138.7320  136.7129  155.7519 F       1  UNL1       -0.2041
     19 C         141.3162  136.5905  155.9908 C.ar    1  UNL1        0.0482
     20 C         141.3033  135.2035  155.4199 C.ar    1  UNL1        0.0054
     21 C         142.5890  134.4488  155.2539 C.ar    1  UNL1        0.0208
     22 C         143.8875  135.0811  155.6588 C.ar    1  UNL1        0.0989
     23 N         143.9003  136.4681  156.2297 N.ar    1  UNL1       -0.2407
     24 C         142.6147  137.2228  156.3957 C.ar    1  UNL1        0.1179
     25 C         143.9140  141.3875  164.8648 C.3     1  UNL1        0.1115
     26 C         142.6090  141.3093  165.6002 C.3     1  UNL1        0.0388
     27 C         142.2542  142.3583  166.6121 C.3     1  UNL1        0.0048
     28 C         140.9492  142.2801  167.3475 C.3     1  UNL1        0.0174
     29 C         139.9990  141.1528  167.0710 C.3     1  UNL1        0.0720
     30 N         140.3537  140.1039  166.0593 N.3     1  UNL1       -0.2739
     31 C         141.6588  140.1821  165.3239 C.3     1  UNL1        0.0739
     32 C         139.4035  138.9767  165.7829 C.3     1  UNL1        0.0576
     33 C         138.1838  138.7973  166.6374 C.3     1  UNL1        0.0173
     34 C         139.6729  138.0287  164.6519 C.3     1  UNL1        0.0173
@<TRIPOS>BOND
     1     1     2    1
     2     2     3   ar
     3     3     4   ar
     4     4     5   ar
     5     5     6   ar
     6     6     7   ar
     7     7    13    1
     8    13    14    1
     9    14    15   ar
    10    15    16   ar
    11    16    17   ar
    12    17    18    1
    13    17    19   ar
    14    19    20   ar
    15    20    21   ar
    16    21    22   ar
    17    22    23   ar
    18    23    24   ar
    19     7     8   ar
    20     8     9   ar
    21     9    10   ar
    22    10    11    2
    23    10    12   ar
    24    12    25    1
    25    26    25    1
    26    26    27    1
    27    27    28    1
    28    28    29    1
    29    29    30    1
    30    30    32    1
    31    32    33    1
    32    32    34    1
    33    30    31    1
    34    12     2   ar
    35    31    26    1
    36     9     4   ar
    37    24    14   ar
    38    24    19   ar
@<TRIPOS>MOLECULE
*****
 34 38 0 0 0
SMALL
GASTEIGER

@<TRIPOS>ATOM
      1 C         138.8325  138.5124  164.6215 C.3     1  UNL1        0.0719
      2 C         139.8283  138.4633  163.5008 C.ar    1  UNL1        0.1230
      3 N         139.3560  138.4676  162.0771 N.ar    1  UNL1       -0.2306
      4 C         140.3518  138.4185  160.9564 C.ar    1  UNL1        0.1051
      5 C         139.8795  138.4228  159.5327 C.ar    1  UNL1        0.0256
      6 C         140.8753  138.3738  158.4121 C.ar    1  UNL1        0.0597
      7 C         142.3434  138.3204  158.7151 C.ar    1  UNL1        0.2299
      8 N         142.8157  138.3160  160.1387 N.ar    1  UNL1       -0.2050
      9 C         141.8199  138.3651  161.2594 C.ar    1  UNL1        0.1579
     10 C         142.2922  138.3608  162.6831 C.ar    1  UNL1        0.2810
     11 O         143.7603  138.3074  162.9862 O.2     1  UNL1       -0.2652
     12 N         141.2964  138.4099  163.8038 N.ar    1  UNL1       -0.2827
     13 O         143.3393  138.2713  157.5943 O.3     1  UNL1       -0.4346
     14 C         142.9844  137.5919  156.3050 C.ar    1  UNL1        0.1648
     15 C         142.6276  138.4101  155.0995 C.ar    1  UNL1        0.0414
     16 C         142.2728  137.7306  153.8101 C.ar    1  UNL1        0.0329
     17 C         142.2748  136.2330  153.7262 C.ar    1  UNL1        0.1417
     18 F         141.9199  135.5536  152.4369 F       1  UNL1       -0.2041
     19 C         142.6316  135.4148  154.9317 C.ar    1  UNL1        0.0482
     20 C         142.6336  133.9171  154.8479 C.ar    1  UNL1        0.0054
     21 C         142.9905  133.0989  156.0534 C.ar    1  UNL1        0.0208
     22 C         143.3453  133.7783  157.3427 C.ar    1  UNL1        0.0989
     23 N         143.3433  135.2760  157.4265 N.ar    1  UNL1       -0.2407
     24 C         142.9864  136.0942  156.2211 C.ar    1  UNL1        0.1179
     25 C         141.7687  138.4056  165.2276 C.3     1  UNL1        0.1115
     26 C         141.9457  139.7009  165.9629 C.3     1  UNL1        0.0388
     27 C         143.0368  140.6485  165.5610 C.3     1  UNL1        0.0048
     28 C         143.2138  141.9439  166.2964 C.3     1  UNL1        0.0174
     29 C         142.2996  142.2916  167.4337 C.3     1  UNL1        0.0720
     30 N         141.2085  141.3440  167.8356 N.3     1  UNL1       -0.2739
     31 C         141.0315  140.0487  167.1002 C.3     1  UNL1        0.0739
     32 C         140.2944  141.6918  168.9728 C.3     1  UNL1        0.0576
     33 C         139.3853  140.6479  169.5505 C.3     1  UNL1        0.0173
     34 C         140.2894  143.0836  169.5324 C.3     1  UNL1        0.0173
@<TRIPOS>BOND
     1     1     2    1
     2     2     3   ar
     3     3     4   ar
     4     4     5   ar
     5     5     6   ar
     6     6     7   ar
     7     7    13    1
     8    13    14    1
     9    14    15   ar
    10    15    16   ar
    11    16    17   ar
    12    17    18    1
    13    17    19   ar
    14    19    20   ar
    15    20    21   ar
    16    21    22   ar
    17    22    23   ar
    18    23    24   ar
    19     7     8   ar
    20     8     9   ar
    21     9    10   ar
    22    10    11    2
    23    10    12   ar
    24    12    25    1
    25    26    25    1
    26    26    27    1
    27    27    28    1
    28    28    29    1
    29    29    30    1
    30    30    32    1
    31    32    33    1
    32    32    34    1
    33    30    31    1
    34    12     2   ar
    35    31    26    1
    36     9     4   ar
    37    24    14   ar
    38    24    19   ar
@<TRIPOS>MOLECULE
*****
 34 38 0 0 0
SMALL
GASTEIGER

@<TRIPOS>ATOM
      1 C         140.0870  137.4744  155.1287 C.3     1  UNL1        0.0719
      2 C         140.3768  137.8221  156.5588 C.ar    1  UNL1        0.1230
      3 N         139.3730  138.5962  157.3607 N.ar    1  UNL1       -0.2306
      4 C         139.6628  138.9439  158.7909 C.ar    1  UNL1        0.1051
      5 C         138.6591  139.7181  159.5927 C.ar    1  UNL1        0.0256
      6 C         138.9489  140.0657  161.0228 C.ar    1  UNL1        0.0597
      7 C         140.2425  139.6391  161.6510 C.ar    1  UNL1        0.2299
      8 N         141.2463  138.8650  160.8491 N.ar    1  UNL1       -0.2050
      9 C         140.9565  138.5173  159.4190 C.ar    1  UNL1        0.1579
     10 C         141.9603  137.7431  158.6171 C.ar    1  UNL1        0.2810
     11 O         143.2539  137.3166  159.2452 O.2     1  UNL1       -0.2652
     12 N         141.6704  137.3955  157.1870 N.ar    1  UNL1       -0.2827
     13 O         140.5324  139.9868  163.0811 O.3     1  UNL1       -0.4346
     14 C         140.1158  141.3199  163.6281 C.ar    1  UNL1        0.1648
     15 C         138.7818  141.4726  164.2966 C.ar    1  UNL1        0.0414
     16 C         138.3652  142.8059  164.8436 C.ar    1  UNL1        0.0329
     17 C         139.2828  143.9862  164.7221 C.ar    1  UNL1        0.1417
     18 F         138.8662  145.3193  165.2691 F       1  UNL1       -0.2041
     19 C         140.6168  143.8335  164.0536 C.ar    1  UNL1        0.0482
     20 C         141.5343  145.0139  163.9320 C.ar    1  UNL1        0.0054
     21 C         142.8684  144.8611  163.2635 C.ar    1  UNL1        0.0208
     22 C         143.2849  143.5280  162.7165 C.ar    1  UNL1        0.0989
     23 N         142.3674  142.3476  162.8380 N.ar    1  UNL1       -0.2407
     24 C         141.0334  142.5004  163.5066 C.ar    1  UNL1        0.1179
     25 C         142.6742  136.6213  156.3850 C.3     1  UNL1        0.1115
     26 C         142.5518  135.1309  156.2679 C.3     1  UNL1        0.0388
     27 C         141.4713  134.5316  155.4173 C.3     1  UNL1        0.0048
     28 C         141.3490  133.0412  155.3002 C.3     1  UNL1        0.0174
     29 C         142.3071  132.1501  156.0337 C.3     1  UNL1        0.0720
     30 N         143.3876  132.7494  156.8842 N.3     1  UNL1       -0.2739
     31 C         143.5099  134.2398  157.0013 C.3     1  UNL1        0.0739
     32 C         144.3456  131.8582  157.6176 C.3     1  UNL1        0.0576
     33 C         144.0377  130.3993  157.7812 C.3     1  UNL1        0.0173
     34 C         145.6118  132.4260  158.1875 C.3     1  UNL1        0.0173
@<TRIPOS>BOND
     1     1     2    1
     2     2     3   ar
     3     3     4   ar
     4     4     5   ar
     5     5     6   ar
     6     6     7   ar
     7     7    13    1
     8    13    14    1
     9    14    15   ar
    10    15    16   ar
    11    16    17   ar
    12    17    18    1
    13    17    19   ar
    14    19    20   ar
    15    20    21   ar
    16    21    22   ar
    17    22    23   ar
    18    23    24   ar
    19     7     8   ar
    20     8     9   ar
    21     9    10   ar
    22    10    11    2
    23    10    12   ar
    24    12    25    1
    25    26    25    1
    26    26    27    1
    27    27    28    1
    28    28    29    1
    29    29    30    1
    30    30    32    1
    31    32    33    1
    32    32    34    1
    33    30    31    1
    34    12     2   ar
    35    31    26    1
    36     9     4   ar
    37    24    14   ar
    38    24    19   ar
