@<TRIPOS>MOLECULE
*****
 22 24 0 0 0
SMALL
GASTEIGER

@<TRIPOS>ATOM
      1 N         139.6201  142.7001  165.7740 N.ar    1  UNL1       -0.2076
      2 C         138.9915  141.5448  165.0529 C.ar    1  UNL1        0.1378
      3 C         137.9261  142.0879  164.1473 C.ar    1  UNL1        0.1713
      4 N         137.8963  143.5789  164.3088 N.ar    1  UNL1       -0.1135
      5 N         138.9433  143.9572  165.3142 N.ar    1  UNL1       -0.0583
      6 CL        144.0621  142.3536  169.7926 Cl      1  UNL1       -0.0822
      7 C         142.9516  142.4402  168.7880 C.ar    1  UNL1        0.0578
      8 C         141.5539  142.7446  169.2394 C.ar    1  UNL1        0.0129
      9 C         140.4434  142.8312  168.2347 C.ar    1  UNL1        0.0201
     10 C         140.7306  142.6135  166.7787 C.ar    1  UNL1        0.0846
     11 C         142.1283  142.3091  166.3273 C.ar    1  UNL1        0.0201
     12 C         143.2388  142.2225  167.3319 C.ar    1  UNL1        0.0129
     13 N         137.0452  141.2816  163.2396 N.pl3   1  UNL1       -0.3142
     14 H         136.0855  141.1898  163.4390 H       1  UNL1        0.1483
     15 C         137.6266  140.6151  162.0281 C.3     1  UNL1        0.1058
     16 C         137.7836  139.1237  161.9953 C.3     1  UNL1        0.0936
     17 N         138.9244  138.4735  162.7206 N.3     1  UNL1       -0.2712
     18 C         140.2030  138.1771  161.9946 C.3     1  UNL1        0.0721
     19 C         141.3439  137.5269  162.7199 C.3     1  UNL1        0.0174
     20 C         141.2060  137.1733  164.1710 C.3     1  UNL1        0.0029
     21 C         139.9272  137.4697  164.8969 C.3     1  UNL1        0.0174
     22 C         138.7865  138.1199  164.1717 C.3     1  UNL1        0.0721
@<TRIPOS>BOND
     1     6     7    1
     2     7     8   ar
     3     8     9   ar
     4     9    10   ar
     5    10     1    1
     6     1     2   ar
     7     2     3   ar
     8     3    13    1
     9    13    15    1
    10    15    16    1
    11    16    17    1
    12    17    18    1
    13    18    19    1
    14    19    20    1
    15    20    21    1
    16    21    22    1
    17     3     4   ar
    18     4     5   ar
    19    10    11   ar
    20    11    12   ar
    21    12     7   ar
    22     5     1   ar
    23    22    17    1
    24    13    14    1
@<TRIPOS>MOLECULE
*****
 22 24 0 0 0
SMALL
GASTEIGER

@<TRIPOS>ATOM
      1 N         143.3714  142.7508  163.4364 N.ar    1  UNL1       -0.2076
      2 C         142.4668  142.9461  162.2559 C.ar    1  UNL1        0.1378
      3 C         142.6451  144.3514  161.7627 C.ar    1  UNL1        0.1713
      4 N         143.6599  145.0247  162.6384 N.ar    1  UNL1       -0.1135
      5 N         144.1087  144.0355  163.6727 N.ar    1  UNL1       -0.0583
      6 CL        143.9404  137.7153  166.6488 Cl      1  UNL1       -0.0822
      7 C         143.7981  138.9742  165.8457 C.ar    1  UNL1        0.0578
      8 C         144.7362  139.2479  164.7077 C.ar    1  UNL1        0.0129
      9 C         144.5940  140.5068  163.9046 C.ar    1  UNL1        0.0201
     10 C         143.5136  141.4920  164.2395 C.ar    1  UNL1        0.0846
     11 C         142.5755  141.2183  165.3774 C.ar    1  UNL1        0.0201
     12 C         142.7178  139.9594  166.1806 C.ar    1  UNL1        0.0129
     13 N         141.9335  144.9741  160.5982 N.pl3   1  UNL1       -0.3142
     14 H         142.3920  145.0633  159.7316 H       1  UNL1        0.1483
     15 C         140.5233  145.4608  160.7542 C.3     1  UNL1        0.1058
     16 C         140.0054  145.8370  162.1108 C.3     1  UNL1        0.0936
     17 N         139.4078  144.7891  163.0025 N.3     1  UNL1       -0.2712
     18 C         139.9245  144.6093  164.3991 C.3     1  UNL1        0.0721
     19 C         139.3268  143.5615  165.2907 C.3     1  UNL1        0.0174
     20 C         138.2125  142.6936  164.7857 C.3     1  UNL1        0.0029
     21 C         137.6959  142.8735  163.3890 C.3     1  UNL1        0.0174
     22 C         138.2935  143.9212  162.4974 C.3     1  UNL1        0.0721
@<TRIPOS>BOND
     1     6     7    1
     2     7     8   ar
     3     8     9   ar
     4     9    10   ar
     5    10     1    1
     6     1     2   ar
     7     2     3   ar
     8     3    13    1
     9    13    15    1
    10    15    16    1
    11    16    17    1
    12    17    18    1
    13    18    19    1
    14    19    20    1
    15    20    21    1
    16    21    22    1
    17     3     4   ar
    18     4     5   ar
    19    10    11   ar
    20    11    12   ar
    21    12     7   ar
    22     5     1   ar
    23    22    17    1
    24    13    14    1
@<TRIPOS>MOLECULE
*****
 22 24 0 0 0
SMALL
GASTEIGER

@<TRIPOS>ATOM
      1 N         139.9586  139.3259  166.0172 N.ar    1  UNL1       -0.2076
      2 C         141.0587  138.9110  165.0858 C.ar    1  UNL1        0.1378
      3 C         140.5394  137.8014  164.2202 C.ar    1  UNL1        0.1713
      4 N         139.1184  137.5306  164.6167 N.ar    1  UNL1       -0.1135
      5 N         138.7594  138.4728  165.7274 N.ar    1  UNL1       -0.0583
      6 CL        140.2959  143.6406  170.1729 Cl      1  UNL1       -0.0822
      7 C         140.2116  142.5619  169.1340 C.ar    1  UNL1        0.0578
      8 C         140.5528  142.8679  167.7058 C.ar    1  UNL1        0.0129
      9 C         140.4685  141.7893  166.6669 C.ar    1  UNL1        0.0201
     10 C         140.0430  140.4046  167.0562 C.ar    1  UNL1        0.0846
     11 C         139.7017  140.0986  168.4844 C.ar    1  UNL1        0.0201
     12 C         139.7860  141.1773  169.5233 C.ar    1  UNL1        0.0129
     13 N         141.3065  137.0880  163.1466 N.pl3   1  UNL1       -0.3142
     14 H         141.4019  136.1086  163.1778 H       1  UNL1        0.1483
     15 C         141.9283  137.8668  162.0255 C.3     1  UNL1        0.1058
     16 C         143.4198  138.0036  161.9444 C.3     1  UNL1        0.0936
     17 N         144.0805  139.2793  162.3762 N.3     1  UNL1       -0.2712
     18 C         144.1502  140.4440  161.4337 C.3     1  UNL1        0.0721
     19 C         144.8109  141.7196  161.8656 C.3     1  UNL1        0.0174
     20 C         145.4018  141.8304  163.2398 C.3     1  UNL1        0.0029
     21 C         145.3321  140.6655  164.1822 C.3     1  UNL1        0.0174
     22 C         144.6714  139.3899  163.7504 C.3     1  UNL1        0.0721
@<TRIPOS>BOND
     1     6     7    1
     2     7     8   ar
     3     8     9   ar
     4     9    10   ar
     5    10     1    1
     6     1     2   ar
     7     2     3   ar
     8     3    13    1
     9    13    15    1
    10    15    16    1
    11    16    17    1
    12    17    18    1
    13    18    19    1
    14    19    20    1
    15    20    21    1
    16    21    22    1
    17     3     4   ar
    18     4     5   ar
    19    10    11   ar
    20    11    12   ar
    21    12     7   ar
    22     5     1   ar
    23    22    17    1
    24    13    14    1
@<TRIPOS>MOLECULE
*****
 22 24 0 0 0
SMALL
GASTEIGER

@<TRIPOS>ATOM
      1 N         143.4978  142.3214  164.6556 N.ar    1  UNL1       -0.2076
      2 C         142.5768  143.3338  164.0418 C.ar    1  UNL1        0.1378
      3 C         143.2543  143.9025  162.8303 C.ar    1  UNL1        0.1713
      4 N         144.5940  143.2415  162.6954 N.ar    1  UNL1       -0.1135
      5 N         144.7445  142.2644  163.8235 N.ar    1  UNL1       -0.0583
      6 CL        142.3896  139.0708  169.5755 Cl      1  UNL1       -0.0822
      7 C         142.6667  139.8835  168.3455 C.ar    1  UNL1        0.0578
      8 C         142.8610  139.2013  167.0239 C.ar    1  UNL1        0.0129
      9 C         143.1381  140.0139  165.7939 C.ar    1  UNL1        0.0201
     10 C         143.2208  141.5088  165.8856 C.ar    1  UNL1        0.0846
     11 C         143.0264  142.1910  167.2072 C.ar    1  UNL1        0.0201
     12 C         142.7494  141.3784  168.4372 C.ar    1  UNL1        0.0129
     13 N         142.6909  144.9484  161.9145 N.pl3   1  UNL1       -0.3142
     14 H         143.0587  145.8616  161.9249 H       1  UNL1        0.1483
     15 C         141.5671  144.6031  160.9830 C.3     1  UNL1        0.1058
     16 C         140.1819  145.1078  161.2594 C.3     1  UNL1        0.0936
     17 N         139.3543  144.4744  162.3384 N.3     1  UNL1       -0.2712
     18 C         139.4001  145.0183  163.7355 C.3     1  UNL1        0.0721
     19 C         138.5725  144.3849  164.8144 C.3     1  UNL1        0.0174
     20 C         137.6992  143.2077  164.4962 C.3     1  UNL1        0.0029
     21 C         137.6533  142.6638  163.0990 C.3     1  UNL1        0.0174
     22 C         138.4809  143.2972  162.0201 C.3     1  UNL1        0.0721
@<TRIPOS>BOND
     1     6     7    1
     2     7     8   ar
     3     8     9   ar
     4     9    10   ar
     5    10     1    1
     6     1     2   ar
     7     2     3   ar
     8     3    13    1
     9    13    15    1
    10    15    16    1
    11    16    17    1
    12    17    18    1
    13    18    19    1
    14    19    20    1
    15    20    21    1
    16    21    22    1
    17     3     4   ar
    18     4     5   ar
    19    10    11   ar
    20    11    12   ar
    21    12     7   ar
    22     5     1   ar
    23    22    17    1
    24    13    14    1
@<TRIPOS>MOLECULE
*****
 22 24 0 0 0
SMALL
GASTEIGER

@<TRIPOS>ATOM
      1 N         140.3257  138.4317  164.0363 N.ar    1  UNL1       -0.2076
      2 C         141.6961  138.0795  163.5385 C.ar    1  UNL1        0.1378
      3 C         141.5742  137.6575  162.1043 C.ar    1  UNL1        0.1713
      4 N         140.1283  137.7489  161.7156 N.ar    1  UNL1       -0.1135
      5 N         139.3567  138.2273  162.9097 N.ar    1  UNL1       -0.0583
      6 CL        138.9596  140.3252  169.5634 Cl      1  UNL1       -0.0822
      7 C         139.3011  139.8518  168.1816 C.ar    1  UNL1        0.0578
      8 C         138.2566  139.1821  167.3387 C.ar    1  UNL1        0.0129
      9 C         138.5981  138.7087  165.9569 C.ar    1  UNL1        0.0201
     10 C         139.9841  138.9051  165.4181 C.ar    1  UNL1        0.0846
     11 C         141.0286  139.5748  166.2610 C.ar    1  UNL1        0.0201
     12 C         140.6871  140.0482  167.6427 C.ar    1  UNL1        0.0129
     13 N         142.7004  137.2209  161.2149 N.pl3   1  UNL1       -0.3142
     14 H         142.6046  136.4134  160.6599 H       1  UNL1        0.1483
     15 C         143.9725  138.0145  161.1712 C.3     1  UNL1        0.1058
     16 C         143.9349  139.4730  160.8229 C.3     1  UNL1        0.0936
     17 N         144.3268  140.4985  161.8451 N.3     1  UNL1       -0.2712
     18 C         144.3074  141.9559  161.4910 C.3     1  UNL1        0.0721
     19 C         144.6994  142.9814  162.5132 C.3     1  UNL1        0.0174
     20 C         145.1107  142.5494  163.8895 C.3     1  UNL1        0.0029
     21 C         145.1301  141.0919  164.2436 C.3     1  UNL1        0.0174
     22 C         144.7381  140.0665  163.2214 C.3     1  UNL1        0.0721
@<TRIPOS>BOND
     1     6     7    1
     2     7     8   ar
     3     8     9   ar
     4     9    10   ar
     5    10     1    1
     6     1     2   ar
     7     2     3   ar
     8     3    13    1
     9    13    15    1
    10    15    16    1
    11    16    17    1
    12    17    18    1
    13    18    19    1
    14    19    20    1
    15    20    21    1
    16    21    22    1
    17     3     4   ar
    18     4     5   ar
    19    10    11   ar
    20    11    12   ar
    21    12     7   ar
    22     5     1   ar
    23    22    17    1
    24    13    14    1
@<TRIPOS>MOLECULE
*****
 22 24 0 0 0
SMALL
GASTEIGER

@<TRIPOS>ATOM
      1 N         143.5307  141.8110  165.6009 N.ar    1  UNL1       -0.2076
      2 C         143.4916  140.5054  164.8634 C.ar    1  UNL1        0.1378
      3 C         144.5170  140.5597  163.7700 C.ar    1  UNL1        0.1713
      4 N         145.1899  141.8988  163.8317 N.ar    1  UNL1       -0.1135
      5 N         144.5804  142.6722  164.9633 N.ar    1  UNL1       -0.0583
      6 CL        140.0926  143.3231  170.2799 Cl      1  UNL1       -0.0822
      7 C         140.9521  142.9450  169.1101 C.ar    1  UNL1        0.0578
      8 C         142.4073  142.6443  169.3148 C.ar    1  UNL1        0.0129
      9 C         143.2668  142.2663  168.1451 C.ar    1  UNL1        0.0201
     10 C         142.6712  142.1890  166.7706 C.ar    1  UNL1        0.0846
     11 C         141.2160  142.4897  166.5659 C.ar    1  UNL1        0.0201
     12 C         140.3565  142.8677  167.7357 C.ar    1  UNL1        0.0129
     13 N         144.8168  139.4667  162.7874 N.pl3   1  UNL1       -0.3142
     14 H         145.6150  138.9029  162.9066 H       1  UNL1        0.1483
     15 C         143.9004  139.2327  161.6232 C.3     1  UNL1        0.1058
     16 C         143.1007  137.9664  161.5409 C.3     1  UNL1        0.0936
     17 N         141.7551  137.8850  162.1990 N.3     1  UNL1       -0.2712
     18 C         140.5115  138.1243  161.3952 C.3     1  UNL1        0.0721
     19 C         139.1660  138.0430  162.0534 C.3     1  UNL1        0.0174
     20 C         139.0642  137.7222  163.5151 C.3     1  UNL1        0.0029
     21 C         140.3079  137.4829  164.3188 C.3     1  UNL1        0.0174
     22 C         141.6533  137.5642  163.6607 C.3     1  UNL1        0.0721
@<TRIPOS>BOND
     1     6     7    1
     2     7     8   ar
     3     8     9   ar
     4     9    10   ar
     5    10     1    1
     6     1     2   ar
     7     2     3   ar
     8     3    13    1
     9    13    15    1
    10    15    16    1
    11    16    17    1
    12    17    18    1
    13    18    19    1
    14    19    20    1
    15    20    21    1
    16    21    22    1
    17     3     4   ar
    18     4     5   ar
    19    10    11   ar
    20    11    12   ar
    21    12     7   ar
    22     5     1   ar
    23    22    17    1
    24    13    14    1
@<TRIPOS>MOLECULE
*****
 22 24 0 0 0
SMALL
GASTEIGER

@<TRIPOS>ATOM
      1 N         139.1076  140.0379  165.7080 N.ar    1  UNL1       -0.2076
      2 C         138.3160  140.7684  164.6641 C.ar    1  UNL1        0.1378
      3 C         138.1450  139.8537  163.4876 C.ar    1  UNL1        0.1713
      4 N         138.8309  138.5579  163.8044 N.ar    1  UNL1       -0.1135
      5 N         139.4259  138.6718  165.1767 N.ar    1  UNL1       -0.0583
      6 CL        140.7183  142.2009  171.0678 Cl      1  UNL1       -0.0822
      7 C         140.3157  141.6601  169.7279 C.ar    1  UNL1        0.0578
      8 C         139.5669  140.3636  169.6365 C.ar    1  UNL1        0.0129
      9 C         139.1642  139.8229  168.2965 C.ar    1  UNL1        0.0201
     10 C         139.5103  140.5786  167.0480 C.ar    1  UNL1        0.0846
     11 C         140.2591  141.8751  167.1393 C.ar    1  UNL1        0.0201
     12 C         140.6617  142.4159  168.4793 C.ar    1  UNL1        0.0129
     13 N         137.4160  140.1779  162.2174 N.pl3   1  UNL1       -0.3142
     14 H         136.4699  139.9256  162.1147 H       1  UNL1        0.1483
     15 C         138.1285  140.8865  161.1038 C.3     1  UNL1        0.1058
     16 C         138.1752  142.3855  161.0773 C.3     1  UNL1        0.0936
     17 N         138.7189  143.1398  162.2545 N.3     1  UNL1       -0.2712
     18 C         140.1936  143.1415  162.5280 C.3     1  UNL1        0.0721
     19 C         140.7372  143.8958  163.7052 C.3     1  UNL1        0.0174
     20 C         139.8061  144.6483  164.6087 C.3     1  UNL1        0.0029
     21 C         138.3312  144.6465  164.3352 C.3     1  UNL1        0.0174
     22 C         137.7876  143.8923  163.1581 C.3     1  UNL1        0.0721
@<TRIPOS>BOND
     1     6     7    1
     2     7     8   ar
     3     8     9   ar
     4     9    10   ar
     5    10     1    1
     6     1     2   ar
     7     2     3   ar
     8     3    13    1
     9    13    15    1
    10    15    16    1
    11    16    17    1
    12    17    18    1
    13    18    19    1
    14    19    20    1
    15    20    21    1
    16    21    22    1
    17     3     4   ar
    18     4     5   ar
    19    10    11   ar
    20    11    12   ar
    21    12     7   ar
    22     5     1   ar
    23    22    17    1
    24    13    14    1
@<TRIPOS>MOLECULE
*****
 22 24 0 0 0
SMALL
GASTEIGER

@<TRIPOS>ATOM
      1 N         139.8758  140.2569  167.3344 N.ar    1  UNL1       -0.2076
      2 C         139.9733  140.1532  165.8412 C.ar    1  UNL1        0.1378
      3 C         138.8892  139.2303  165.3689 C.ar    1  UNL1        0.1713
      4 N         138.1217  138.7636  166.5702 N.ar    1  UNL1       -0.1135
      5 N         138.7315  139.3981  167.7850 N.ar    1  UNL1       -0.0583
      6 CL        143.4378  143.5319  170.8822 Cl      1  UNL1       -0.0822
      7 C         142.5473  142.7131  169.9953 C.ar    1  UNL1        0.0578
      8 C         142.9954  141.3610  169.5252 C.ar    1  UNL1        0.0129
      9 C         142.1049  140.5423  168.6382 C.ar    1  UNL1        0.0201
     10 C         140.7663  141.0756  168.2214 C.ar    1  UNL1        0.0846
     11 C         140.3183  142.4277  168.6915 C.ar    1  UNL1        0.0201
     12 C         141.2088  143.2465  169.5784 C.ar    1  UNL1        0.0129
     13 N         138.6199  138.8423  163.9452 N.pl3   1  UNL1       -0.3142
     14 H         138.8249  137.9302  163.6363 H       1  UNL1        0.1483
     15 C         138.0383  139.8439  162.9920 C.3     1  UNL1        0.1058
     16 C         138.8869  140.9671  162.4743 C.3     1  UNL1        0.0936
     17 N         138.9681  142.2578  163.2345 N.3     1  UNL1       -0.2712
     18 C         137.7500  142.8025  163.9195 C.3     1  UNL1        0.0721
     19 C         137.8311  144.0931  164.6796 C.3     1  UNL1        0.0174
     20 C         139.1304  144.8389  164.7547 C.3     1  UNL1        0.0029
     21 C         140.3485  144.2941  164.0696 C.3     1  UNL1        0.0174
     22 C         140.2674  143.0035  163.3095 C.3     1  UNL1        0.0721
@<TRIPOS>BOND
     1     6     7    1
     2     7     8   ar
     3     8     9   ar
     4     9    10   ar
     5    10     1    1
     6     1     2   ar
     7     2     3   ar
     8     3    13    1
     9    13    15    1
    10    15    16    1
    11    16    17    1
    12    17    18    1
    13    18    19    1
    14    19    20    1
    15    20    21    1
    16    21    22    1
    17     3     4   ar
    18     4     5   ar
    19    10    11   ar
    20    11    12   ar
    21    12     7   ar
    22     5     1   ar
    23    22    17    1
    24    13    14    1
@<TRIPOS>MOLECULE
*****
 22 24 0 0 0
SMALL
GASTEIGER

@<TRIPOS>ATOM
      1 N         139.4523  139.7740  167.3659 N.ar    1  UNL1       -0.2076
      2 C         139.7466  139.3687  165.9520 C.ar    1  UNL1        0.1378
      3 C         138.6613  138.4363  165.5016 C.ar    1  UNL1        0.1713
      4 N         137.6962  138.2654  166.6371 N.ar    1  UNL1       -0.1135
      5 N         138.1852  139.0922  167.7893 N.ar    1  UNL1       -0.0583
      6 CL        142.7628  143.4732  170.7359 Cl      1  UNL1       -0.0822
      7 C         141.9352  142.5484  169.8934 C.ar    1  UNL1        0.0578
      8 C         142.4584  142.0669  168.5726 C.ar    1  UNL1        0.0129
      9 C         141.6308  141.1421  167.7301 C.ar    1  UNL1        0.0201
     10 C         140.2800  140.6988  168.2084 C.ar    1  UNL1        0.0846
     11 C         139.7568  141.1803  169.5291 C.ar    1  UNL1        0.0201
     12 C         140.5844  142.1051  170.3716 C.ar    1  UNL1        0.0129
     13 N         138.5590  137.7886  164.1525 N.pl3   1  UNL1       -0.3142
     14 H         137.7342  137.3174  163.8940 H       1  UNL1        0.1483
     15 C         139.7134  137.8589  163.1974 C.3     1  UNL1        0.1058
     16 C         140.9996  137.1589  163.5227 C.3     1  UNL1        0.0936
     17 N         142.2485  137.9558  163.7579 N.3     1  UNL1       -0.2712
     18 C         142.9825  138.5596  162.5976 C.3     1  UNL1        0.0721
     19 C         144.2314  139.3566  162.8330 C.3     1  UNL1        0.0174
     20 C         144.7461  139.5496  164.2285 C.3     1  UNL1        0.0029
     21 C         144.0120  138.9457  165.3889 C.3     1  UNL1        0.0174
     22 C         142.7632  138.1488  165.1536 C.3     1  UNL1        0.0721
@<TRIPOS>BOND
     1     6     7    1
     2     7     8   ar
     3     8     9   ar
     4     9    10   ar
     5    10     1    1
     6     1     2   ar
     7     2     3   ar
     8     3    13    1
     9    13    15    1
    10    15    16    1
    11    16    17    1
    12    17    18    1
    13    18    19    1
    14    19    20    1
    15    20    21    1
    16    21    22    1
    17     3     4   ar
    18     4     5   ar
    19    10    11   ar
    20    11    12   ar
    21    12     7   ar
    22     5     1   ar
    23    22    17    1
    24    13    14    1
