@<TRIPOS>MOLECULE
*****
 39 42 0 0 0
SMALL
GASTEIGER

@<TRIPOS>ATOM
      1 C         142.7247  140.7865  165.9861 C.ar    1  UNL1        0.2144
      2 C         142.1177  142.1582  165.9795 C.ar    1  UNL1        0.1822
      3 O         141.5609  142.7380  167.2458 O.2     1  UNL1       -0.4500
      4 C         141.6110  141.9462  168.5188 C.ar    1  UNL1        0.1545
      5 C         141.0542  142.5260  169.7852 C.ar    1  UNL1        0.0744
      6 C         141.1043  141.7342  171.0581 C.ar    1  UNL1        0.1397
      7 O         140.5474  142.3140  172.3245 O.3     1  UNL1       -0.5053
      8 C         141.7112  140.3625  171.0647 C.ar    1  UNL1        0.0735
      9 C         142.2681  139.7826  169.7984 C.ar    1  UNL1        0.1428
     10 O         142.8750  138.4109  169.8050 O.3     1  UNL1       -0.5052
     11 C         142.2180  140.5745  168.5254 C.ar    1  UNL1        0.1104
     12 C         142.7748  139.9946  167.2590 C.ar    1  UNL1        0.2382
     13 O         143.3818  138.6229  167.2656 O.2     1  UNL1       -0.2830
     14 H         140.1683  143.1708  172.3204 H       1  UNL1        0.2922
     15 H         142.9063  137.9163  170.6001 H       1  UNL1        0.2922
     16 C         142.0676  142.9500  164.7064 C.ar    1  UNL1        0.0379
     17 C         140.8163  142.9620  163.8794 C.ar    1  UNL1        0.0062
     18 C         140.7663  143.7538  162.6064 C.ar    1  UNL1        0.0367
     19 C         141.9675  144.5337  162.1605 C.ar    1  UNL1        0.1337
     20 O         141.9174  145.3255  160.8875 O.3     1  UNL1       -0.5055
     21 C         143.2188  144.5217  162.9876 C.ar    1  UNL1        0.0367
     22 C         143.2689  143.7299  164.2605 C.ar    1  UNL1        0.0062
     23 H         141.1357  145.3330  160.3709 H       1  UNL1        0.2922
     24 O         143.2815  140.2066  164.7196 O.3     1  UNL1       -0.4441
     25 C         142.0231  138.1922  161.5403 C.3     1  UNL1        0.2306
     26 C         140.5406  138.2000  161.7682 C.3     1  UNL1        0.1804
     27 O         139.6270  137.5311  160.7844 O.3     1  UNL1       -0.3785
     28 C         139.9717  138.8767  162.9800 C.3     1  UNL1        0.1494
     29 C         138.4891  138.8845  163.2080 C.3     1  UNL1        0.0349
     30 O         140.8853  139.5456  163.9638 O.3     1  UNL1       -0.3186
     31 C         142.3679  139.5378  163.7358 C.3     1  UNL1        0.3194
     32 C         142.9368  138.8611  162.5241 C.3     1  UNL1        0.2240
     33 O         144.4193  138.8533  162.2961 O.3     1  UNL1       -0.3758
     34 H         138.7079  137.6279  161.0792 H       1  UNL1        0.2106
     35 H         144.8602  139.3252  163.0198 H       1  UNL1        0.2107
     36 O         142.5920  137.5155  160.3285 O.3     1  UNL1       -0.4468
     37 C         142.2018  138.1258  157.8334 C.3     1  UNL1        0.1212
     38 C         142.9516  138.3241  159.1174 C.2     1  UNL1        0.3176
     39 O         144.0610  139.3311  159.1902 O.2     1  UNL1       -0.2501
@<TRIPOS>BOND
     1    37    38    1
     2    38    39    2
     3    38    36    1
     4    25    36    1
     5    25    26    1
     6    26    27    1
     7    26    28    1
     8    28    29    1
     9    28    30    1
    10    30    31    1
    11    31    24    1
    12    24     1    1
    13     1     2   ar
    14     2    16    1
    15    16    17   ar
    16    17    18   ar
    17    18    19   ar
    18    19    20    1
    19    19    21   ar
    20    21    22   ar
    21     2     3   ar
    22     3     4   ar
    23     4     5   ar
    24     5     6   ar
    25     6     7    1
    26     6     8   ar
    27     8     9   ar
    28     9    10    1
    29     9    11   ar
    30    11    12   ar
    31    12    13    2
    32    31    32    1
    33    32    33    1
    34    32    25    1
    35    12     1   ar
    36    22    16   ar
    37    11     4   ar
    38    27    34    1
    39    20    23    1
    40     7    14    1
    41    10    15    1
    42    33    35    1
@<TRIPOS>MOLECULE
*****
 39 42 0 0 0
SMALL
GASTEIGER

@<TRIPOS>ATOM
      1 C         141.7952  141.8189  165.5338 C.ar    1  UNL1        0.2144
      2 C         140.8771  142.9742  165.8031 C.ar    1  UNL1        0.1822
      3 O         140.4139  143.2537  167.2021 O.2     1  UNL1       -0.4500
      4 C         140.8687  142.3780  168.3318 C.ar    1  UNL1        0.1545
      5 C         140.4054  142.6575  169.7308 C.ar    1  UNL1        0.0744
      6 C         140.8602  141.7818  170.8605 C.ar    1  UNL1        0.1397
      7 O         140.3969  142.0613  172.2596 O.3     1  UNL1       -0.5053
      8 C         141.7782  140.6265  170.5912 C.ar    1  UNL1        0.0735
      9 C         142.2415  140.3470  169.1922 C.ar    1  UNL1        0.1428
     10 O         143.1596  139.1917  168.9229 O.3     1  UNL1       -0.5052
     11 C         141.7867  141.2227  168.0625 C.ar    1  UNL1        0.1104
     12 C         142.2500  140.9432  166.6635 C.ar    1  UNL1        0.2382
     13 O         143.1681  139.7879  166.3942 O.2     1  UNL1       -0.2830
     14 H         139.8234  142.7829  172.4278 H       1  UNL1        0.2922
     15 H         143.4437  138.6447  169.6286 H       1  UNL1        0.2922
     16 C         140.4224  143.8499  164.6733 C.ar    1  UNL1        0.0379
     17 C         141.4017  144.7517  163.9823 C.ar    1  UNL1        0.0062
     18 C         140.9469  145.6274  162.8526 C.ar    1  UNL1        0.0367
     19 C         139.5127  145.6013  162.4139 C.ar    1  UNL1        0.1337
     20 O         139.0580  146.4770  161.2841 O.3     1  UNL1       -0.5055
     21 C         138.5334  144.6995  163.1049 C.ar    1  UNL1        0.0367
     22 C         138.9882  143.8238  164.2346 C.ar    1  UNL1        0.0062
     23 H         139.6698  147.0404  160.8524 H       1  UNL1        0.2922
     24 O         142.2585  141.5394  164.1347 O.3     1  UNL1       -0.4441
     25 C         141.5327  138.5948  161.5750 C.3     1  UNL1        0.2306
     26 C         140.0328  138.5811  161.5764 C.3     1  UNL1        0.1804
     27 O         139.2909  137.5950  160.7236 O.3     1  UNL1       -0.3785
     28 C         139.2747  139.5536  162.4306 C.3     1  UNL1        0.1494
     29 C         137.7748  139.5400  162.4321 C.3     1  UNL1        0.0349
     30 O         140.0166  140.5397  163.2834 O.3     1  UNL1       -0.3186
     31 C         141.5166  140.5533  163.2819 C.3     1  UNL1        0.3194
     32 C         142.2746  139.5809  162.4277 C.3     1  UNL1        0.2240
     33 O         143.7745  139.5945  162.4263 O.3     1  UNL1       -0.3758
     34 H         138.3362  137.7200  160.8410 H       1  UNL1        0.2106
     35 H         144.0921  140.2868  163.0269 H       1  UNL1        0.2107
     36 O         142.2907  137.6223  160.7208 O.3     1  UNL1       -0.4468
     37 C         142.4381  137.5498  158.1279 C.3     1  UNL1        0.1212
     38 C         142.9256  138.0833  159.4424 C.2     1  UNL1        0.3176
     39 O         144.0480  139.0777  159.4784 O.2     1  UNL1       -0.2501
@<TRIPOS>BOND
     1    37    38    1
     2    38    39    2
     3    38    36    1
     4    25    36    1
     5    25    26    1
     6    26    27    1
     7    26    28    1
     8    28    29    1
     9    28    30    1
    10    30    31    1
    11    31    24    1
    12    24     1    1
    13     1     2   ar
    14     2    16    1
    15    16    17   ar
    16    17    18   ar
    17    18    19   ar
    18    19    20    1
    19    19    21   ar
    20    21    22   ar
    21     2     3   ar
    22     3     4   ar
    23     4     5   ar
    24     5     6   ar
    25     6     7    1
    26     6     8   ar
    27     8     9   ar
    28     9    10    1
    29     9    11   ar
    30    11    12   ar
    31    12    13    2
    32    31    32    1
    33    32    33    1
    34    32    25    1
    35    12     1   ar
    36    22    16   ar
    37    11     4   ar
    38    27    34    1
    39    20    23    1
    40     7    14    1
    41    10    15    1
    42    33    35    1
@<TRIPOS>MOLECULE
*****
 39 42 0 0 0
SMALL
GASTEIGER

@<TRIPOS>ATOM
      1 C         141.6680  141.7826  165.5911 C.ar    1  UNL1        0.2144
      2 C         140.7798  142.9627  165.8527 C.ar    1  UNL1        0.1822
      3 O         140.3467  143.2795  167.2534 O.2     1  UNL1       -0.4500
      4 C         140.8019  142.4162  168.3926 C.ar    1  UNL1        0.1545
      5 C         140.3688  142.7330  169.7933 C.ar    1  UNL1        0.0744
      6 C         140.8239  141.8697  170.9324 C.ar    1  UNL1        0.1397
      7 O         140.3909  142.1865  172.3332 O.3     1  UNL1       -0.5053
      8 C         141.7121  140.6896  170.6707 C.ar    1  UNL1        0.0735
      9 C         142.1452  140.3728  169.2700 C.ar    1  UNL1        0.1428
     10 O         143.0333  139.1926  169.0083 O.3     1  UNL1       -0.5052
     11 C         141.6900  141.2361  168.1309 C.ar    1  UNL1        0.1104
     12 C         142.1231  140.9193  166.7301 C.ar    1  UNL1        0.2382
     13 O         143.0113  139.7392  166.4685 O.2     1  UNL1       -0.2830
     14 H         139.8361  142.9237  172.4966 H       1  UNL1        0.2922
     15 H         143.3176  138.6534  169.7199 H       1  UNL1        0.2922
     16 C         140.3247  143.8260  164.7135 C.ar    1  UNL1        0.0379
     17 C         138.8889  143.8005  164.2803 C.ar    1  UNL1        0.0062
     18 C         138.4338  144.6638  163.1412 C.ar    1  UNL1        0.0367
     19 C         139.4146  145.5526  162.4353 C.ar    1  UNL1        0.1337
     20 O         138.9594  146.4159  161.2962 O.3     1  UNL1       -0.5055
     21 C         140.8504  145.5781  162.8686 C.ar    1  UNL1        0.0367
     22 C         141.3054  144.7148  164.0077 C.ar    1  UNL1        0.0062
     23 H         138.0625  146.4000  161.0255 H       1  UNL1        0.2922
     24 O         142.1010  141.4658  164.1902 O.3     1  UNL1       -0.4441
     25 C         140.3582  139.8432  161.0154 C.3     1  UNL1        0.2306
     26 C         139.6362  138.6899  161.6467 C.3     1  UNL1        0.1804
     27 O         138.8146  137.7647  160.7989 O.3     1  UNL1       -0.3785
     28 C         139.7358  138.4619  163.1260 C.3     1  UNL1        0.1494
     29 C         139.0139  137.3086  163.7573 C.3     1  UNL1        0.0349
     30 O         140.5574  139.3872  163.9738 O.3     1  UNL1       -0.3186
     31 C         141.2794  140.5405  163.3424 C.3     1  UNL1        0.3194
     32 C         141.1798  140.7685  161.8632 C.3     1  UNL1        0.2240
     33 O         141.9018  141.9218  161.2319 O.3     1  UNL1       -0.3758
     34 H         138.4185  137.0790  161.3590 H       1  UNL1        0.2106
     35 H         142.3816  142.4158  161.9149 H       1  UNL1        0.2107
     36 O         140.2586  140.0713  159.5362 O.3     1  UNL1       -0.4468
     37 C         139.1227  142.0991  158.3753 C.3     1  UNL1        0.1212
     38 C         139.0357  140.7196  158.9579 C.2     1  UNL1        0.3176
     39 O         137.7260  139.9884  158.9623 O.2     1  UNL1       -0.2501
@<TRIPOS>BOND
     1    37    38    1
     2    38    39    2
     3    38    36    1
     4    25    36    1
     5    25    26    1
     6    26    27    1
     7    26    28    1
     8    28    29    1
     9    28    30    1
    10    30    31    1
    11    31    24    1
    12    24     1    1
    13     1     2   ar
    14     2    16    1
    15    16    17   ar
    16    17    18   ar
    17    18    19   ar
    18    19    20    1
    19    19    21   ar
    20    21    22   ar
    21     2     3   ar
    22     3     4   ar
    23     4     5   ar
    24     5     6   ar
    25     6     7    1
    26     6     8   ar
    27     8     9   ar
    28     9    10    1
    29     9    11   ar
    30    11    12   ar
    31    12    13    2
    32    31    32    1
    33    32    33    1
    34    32    25    1
    35    12     1   ar
    36    22    16   ar
    37    11     4   ar
    38    27    34    1
    39    20    23    1
    40     7    14    1
    41    10    15    1
    42    33    35    1
@<TRIPOS>MOLECULE
*****
 39 42 0 0 0
SMALL
GASTEIGER

@<TRIPOS>ATOM
      1 C         139.8448  139.3178  166.1710 C.ar    1  UNL1        0.2144
      2 C         141.2159  139.8500  165.8764 C.ar    1  UNL1        0.1822
      3 O         141.9921  140.5569  166.9476 O.2     1  UNL1       -0.4500
      4 C         141.3972  140.7318  168.3135 C.ar    1  UNL1        0.1545
      5 C         142.1735  141.4388  169.3848 C.ar    1  UNL1        0.0744
      6 C         141.5786  141.6136  170.7506 C.ar    1  UNL1        0.1397
      7 O         142.3548  142.3206  171.8219 O.3     1  UNL1       -0.5053
      8 C         140.2075  141.0814  171.0452 C.ar    1  UNL1        0.0735
      9 C         139.4312  140.3744  169.9739 C.ar    1  UNL1        0.1428
     10 O         138.0601  139.8423  170.2685 O.3     1  UNL1       -0.5052
     11 C         140.0261  140.1996  168.6081 C.ar    1  UNL1        0.1104
     12 C         139.2499  139.4926  167.5368 C.ar    1  UNL1        0.2382
     13 O         137.8787  138.9604  167.8314 O.2     1  UNL1       -0.2830
     14 H         143.2113  142.6530  171.6379 H       1  UNL1        0.2922
     15 H         137.6885  139.9515  171.1217 H       1  UNL1        0.2922
     16 C         141.8108  139.6751  164.5105 C.ar    1  UNL1        0.0379
     17 C         141.8634  140.8353  163.5613 C.ar    1  UNL1        0.0062
     18 C         142.4583  140.6604  162.1954 C.ar    1  UNL1        0.0367
     19 C         143.0005  139.3254  161.7789 C.ar    1  UNL1        0.1337
     20 O         143.5954  139.1505  160.4130 O.3     1  UNL1       -0.5055
     21 C         142.9479  138.1652  162.7281 C.ar    1  UNL1        0.0367
     22 C         142.3530  138.3400  164.0939 C.ar    1  UNL1        0.0062
     23 H         143.6283  139.8753  159.8200 H       1  UNL1        0.2922
     24 O         139.0685  138.6108  165.0997 O.3     1  UNL1       -0.4441
     25 C         137.9888  141.2770  162.3656 C.3     1  UNL1        0.2306
     26 C         138.4288  140.5878  161.1082 C.3     1  UNL1        0.1804
     27 O         138.2155  141.2468  159.7777 O.3     1  UNL1       -0.3785
     28 C         139.0821  139.2394  161.1812 C.3     1  UNL1        0.1494
     29 C         139.5221  138.5502  159.9237 C.3     1  UNL1        0.0349
     30 O         139.2953  138.5804  162.5117 O.3     1  UNL1       -0.3186
     31 C         138.8553  139.2698  163.7692 C.3     1  UNL1        0.3194
     32 C         138.2020  140.6180  163.6961 C.3     1  UNL1        0.2240
     33 O         137.7620  141.3073  164.9536 O.3     1  UNL1       -0.3758
     34 H         138.5544  140.6716  159.0739 H       1  UNL1        0.2106
     35 H         137.9722  140.7493  165.7187 H       1  UNL1        0.2107
     36 O         137.3355  142.6253  162.2926 O.3     1  UNL1       -0.4468
     37 C         139.0653  144.5611  162.1870 C.3     1  UNL1        0.1212
     38 C         137.9954  143.8138  162.9267 C.2     1  UNL1        0.3176
     39 O         137.5855  144.2550  164.3005 O.2     1  UNL1       -0.2501
@<TRIPOS>BOND
     1    37    38    1
     2    38    39    2
     3    38    36    1
     4    25    36    1
     5    25    26    1
     6    26    27    1
     7    26    28    1
     8    28    29    1
     9    28    30    1
    10    30    31    1
    11    31    24    1
    12    24     1    1
    13     1     2   ar
    14     2    16    1
    15    16    17   ar
    16    17    18   ar
    17    18    19   ar
    18    19    20    1
    19    19    21   ar
    20    21    22   ar
    21     2     3   ar
    22     3     4   ar
    23     4     5   ar
    24     5     6   ar
    25     6     7    1
    26     6     8   ar
    27     8     9   ar
    28     9    10    1
    29     9    11   ar
    30    11    12   ar
    31    12    13    2
    32    31    32    1
    33    32    33    1
    34    32    25    1
    35    12     1   ar
    36    22    16   ar
    37    11     4   ar
    38    27    34    1
    39    20    23    1
    40     7    14    1
    41    10    15    1
    42    33    35    1
@<TRIPOS>MOLECULE
*****
 39 42 0 0 0
SMALL
GASTEIGER

@<TRIPOS>ATOM
      1 C         141.8937  141.0427  165.6094 C.ar    1  UNL1        0.2144
      2 C         140.7544  140.0895  165.8178 C.ar    1  UNL1        0.1822
      3 O         140.2821  139.7775  167.2069 O.2     1  UNL1       -0.4500
      4 C         140.9492  140.4186  168.3876 C.ar    1  UNL1        0.1545
      5 C         140.4769  140.1066  169.7767 C.ar    1  UNL1        0.0744
      6 C         141.1439  140.7477  170.9573 C.ar    1  UNL1        0.1397
      7 O         140.6716  140.4357  172.3465 O.3     1  UNL1       -0.5053
      8 C         142.2832  141.7009  170.7489 C.ar    1  UNL1        0.0735
      9 C         142.7555  142.0130  169.3599 C.ar    1  UNL1        0.1428
     10 O         143.8948  142.9661  169.1515 O.3     1  UNL1       -0.5052
     11 C         142.0885  141.3718  168.1792 C.ar    1  UNL1        0.1104
     12 C         142.5608  141.6838  166.7901 C.ar    1  UNL1        0.2382
     13 O         143.7001  142.6370  166.5817 O.2     1  UNL1       -0.2830
     14 H         139.9599  139.8403  172.4767 H       1  UNL1        0.2922
     15 H         144.3115  143.3666  169.8890 H       1  UNL1        0.2922
     16 C         140.0874  139.4484  164.6371 C.ar    1  UNL1        0.0379
     17 C         140.7091  138.2497  163.9840 C.ar    1  UNL1        0.0062
     18 C         140.0420  137.6086  162.8033 C.ar    1  UNL1        0.0367
     19 C         138.7534  138.1662  162.2757 C.ar    1  UNL1        0.1337
     20 O         138.0863  137.5251  161.0950 O.3     1  UNL1       -0.5055
     21 C         138.1317  139.3649  162.9288 C.ar    1  UNL1        0.0367
     22 C         138.7987  140.0060  164.1095 C.ar    1  UNL1        0.0062
     23 H         138.4747  136.7763  160.6870 H       1  UNL1        0.2922
     24 O         142.3660  141.3547  164.2203 O.3     1  UNL1       -0.4441
     25 C         141.6728  144.0638  161.4042 C.3     1  UNL1        0.2306
     26 C         140.3170  144.5577  161.8135 C.3     1  UNL1        0.1804
     27 O         139.6339  145.6253  161.0113 O.3     1  UNL1       -0.3785
     28 C         139.6440  143.9839  163.0252 C.3     1  UNL1        0.1494
     29 C         138.2882  144.4778  163.4345 C.3     1  UNL1        0.0349
     30 O         140.3271  142.9163  163.8274 O.3     1  UNL1       -0.3186
     31 C         141.6830  142.4224  163.4180 C.3     1  UNL1        0.3194
     32 C         142.3559  142.9961  162.2064 C.3     1  UNL1        0.2240
     33 O         143.7117  142.5023  161.7971 O.3     1  UNL1       -0.3758
     34 H         138.7726  145.8274  161.4090 H       1  UNL1        0.2106
     35 H         144.0076  141.8180  162.4177 H       1  UNL1        0.2107
     36 O         142.3457  144.6376  160.1926 O.3     1  UNL1       -0.4468
     37 C         141.4106  144.1224  157.8240 C.3     1  UNL1        0.1212
     38 C         142.3983  143.8470  158.9189 C.2     1  UNL1        0.3176
     39 O         143.4384  142.7812  158.7401 O.2     1  UNL1       -0.2501
@<TRIPOS>BOND
     1    37    38    1
     2    38    39    2
     3    38    36    1
     4    25    36    1
     5    25    26    1
     6    26    27    1
     7    26    28    1
     8    28    29    1
     9    28    30    1
    10    30    31    1
    11    31    24    1
    12    24     1    1
    13     1     2   ar
    14     2    16    1
    15    16    17   ar
    16    17    18   ar
    17    18    19   ar
    18    19    20    1
    19    19    21   ar
    20    21    22   ar
    21     2     3   ar
    22     3     4   ar
    23     4     5   ar
    24     5     6   ar
    25     6     7    1
    26     6     8   ar
    27     8     9   ar
    28     9    10    1
    29     9    11   ar
    30    11    12   ar
    31    12    13    2
    32    31    32    1
    33    32    33    1
    34    32    25    1
    35    12     1   ar
    36    22    16   ar
    37    11     4   ar
    38    27    34    1
    39    20    23    1
    40     7    14    1
    41    10    15    1
    42    33    35    1
@<TRIPOS>MOLECULE
*****
 39 42 0 0 0
SMALL
GASTEIGER

@<TRIPOS>ATOM
      1 C         141.2627  140.5422  165.7402 C.ar    1  UNL1        0.2144
      2 C         142.4996  141.3841  165.8469 C.ar    1  UNL1        0.1822
      3 O         142.9290  141.9205  167.1802 O.2     1  UNL1       -0.4500
      4 C         142.1215  141.6150  168.4069 C.ar    1  UNL1        0.1545
      5 C         142.5509  142.1514  169.7403 C.ar    1  UNL1        0.0744
      6 C         141.7434  141.8459  170.9669 C.ar    1  UNL1        0.1397
      7 O         142.1728  142.3823  172.3003 O.3     1  UNL1       -0.5053
      8 C         140.5066  141.0040  170.8602 C.ar    1  UNL1        0.0735
      9 C         140.0772  140.4676  169.5268 C.ar    1  UNL1        0.1428
     10 O         138.8403  139.6257  169.4201 O.3     1  UNL1       -0.5052
     11 C         140.8846  140.7731  168.3002 C.ar    1  UNL1        0.1104
     12 C         140.4553  140.2367  166.9668 C.ar    1  UNL1        0.2382
     13 O         139.2184  139.3947  166.8601 O.2     1  UNL1       -0.2830
     14 H         142.9454  142.9082  172.3670 H       1  UNL1        0.2922
     15 H         138.3359  139.4348  170.1864 H       1  UNL1        0.2922
     16 C         143.3070  141.6896  164.6202 C.ar    1  UNL1        0.0379
     17 C         143.1476  143.0102  163.9270 C.ar    1  UNL1        0.0062
     18 C         143.9551  143.3156  162.7004 C.ar    1  UNL1        0.0367
     19 C         144.9219  142.3004  162.1669 C.ar    1  UNL1        0.1337
     20 O         145.7294  142.6059  160.9402 O.3     1  UNL1       -0.5055
     21 C         145.0813  140.9798  162.8600 C.ar    1  UNL1        0.0367
     22 C         144.2738  140.6744  164.0867 C.ar    1  UNL1        0.0062
     23 H         145.6298  143.4309  160.5072 H       1  UNL1        0.2922
     24 O         140.8333  140.0057  164.4067 O.3     1  UNL1       -0.4441
     25 C         140.4850  141.7809  160.8744 C.3     1  UNL1        0.2306
     26 C         139.4566  142.8281  161.1836 C.3     1  UNL1        0.1804
     27 O         138.9977  143.7689  160.1092 O.3     1  UNL1       -0.3785
     28 C         138.8870  142.9346  162.5672 C.3     1  UNL1        0.1494
     29 C         137.8586  143.9818  162.8764 C.3     1  UNL1        0.0349
     30 O         139.3459  141.9938  163.6416 O.3     1  UNL1       -0.3186
     31 C         140.3744  140.9465  163.3324 C.3     1  UNL1        0.3194
     32 C         140.9439  140.8401  161.9488 C.3     1  UNL1        0.2240
     33 O         141.9723  139.7929  161.6396 O.3     1  UNL1       -0.3758
     34 H         138.3363  144.3778  160.4735 H       1  UNL1        0.2106
     35 H         142.1551  139.2735  162.4382 H       1  UNL1        0.2107
     36 O         141.0545  141.6745  159.4909 O.3     1  UNL1       -0.4468
     37 C         142.7897  143.5281  158.9401 C.3     1  UNL1        0.1212
     38 C         142.4716  142.0910  159.2290 C.2     1  UNL1        0.3176
     39 O         143.5704  141.0703  159.2560 O.2     1  UNL1       -0.2501
@<TRIPOS>BOND
     1    37    38    1
     2    38    39    2
     3    38    36    1
     4    25    36    1
     5    25    26    1
     6    26    27    1
     7    26    28    1
     8    28    29    1
     9    28    30    1
    10    30    31    1
    11    31    24    1
    12    24     1    1
    13     1     2   ar
    14     2    16    1
    15    16    17   ar
    16    17    18   ar
    17    18    19   ar
    18    19    20    1
    19    19    21   ar
    20    21    22   ar
    21     2     3   ar
    22     3     4   ar
    23     4     5   ar
    24     5     6   ar
    25     6     7    1
    26     6     8   ar
    27     8     9   ar
    28     9    10    1
    29     9    11   ar
    30    11    12   ar
    31    12    13    2
    32    31    32    1
    33    32    33    1
    34    32    25    1
    35    12     1   ar
    36    22    16   ar
    37    11     4   ar
    38    27    34    1
    39    20    23    1
    40     7    14    1
    41    10    15    1
    42    33    35    1
@<TRIPOS>MOLECULE
*****
 39 42 0 0 0
SMALL
GASTEIGER

@<TRIPOS>ATOM
      1 C         141.0802  139.6363  158.5703 C.ar    1  UNL1        0.2144
      2 C         142.4899  139.2520  158.9096 C.ar    1  UNL1        0.1822
      3 O         143.1180  138.0549  158.2597 O.2     1  UNL1       -0.4500
      4 C         142.3364  137.2420  157.2705 C.ar    1  UNL1        0.1545
      5 C         142.9645  136.0449  156.6206 C.ar    1  UNL1        0.0744
      6 C         142.1829  135.2322  155.6315 C.ar    1  UNL1        0.1397
      7 O         142.8110  134.0350  154.9815 O.3     1  UNL1       -0.5053
      8 C         140.7732  135.6165  155.2922 C.ar    1  UNL1        0.0735
      9 C         140.1451  136.8136  155.9421 C.ar    1  UNL1        0.1428
     10 O         138.7355  137.1979  155.6028 O.3     1  UNL1       -0.5052
     11 C         140.9267  137.6264  156.9312 C.ar    1  UNL1        0.1104
     12 C         140.2986  138.8235  157.5812 C.ar    1  UNL1        0.2382
     13 O         138.8889  139.2079  157.2419 O.2     1  UNL1       -0.2830
     14 H         143.6916  133.7949  155.1935 H       1  UNL1        0.2922
     15 H         138.2472  136.6902  154.9849 H       1  UNL1        0.2922
     16 C         143.2714  140.0649  159.8988 C.ar    1  UNL1        0.0379
     17 C         143.7351  141.4445  159.5361 C.ar    1  UNL1        0.0062
     18 C         144.5167  142.2572  160.5253 C.ar    1  UNL1        0.0367
     19 C         144.8345  141.6904  161.8772 C.ar    1  UNL1        0.1337
     20 O         145.6161  142.5033  162.8665 O.3     1  UNL1       -0.5055
     21 C         144.3708  140.3108  162.2400 C.ar    1  UNL1        0.0367
     22 C         143.5893  139.4980  161.2508 C.ar    1  UNL1        0.0062
     23 H         145.9057  143.3651  162.6399 H       1  UNL1        0.2922
     24 O         140.4521  140.8335  159.2203 O.3     1  UNL1       -0.4441
     25 C         138.1176  141.6274  162.3299 C.3     1  UNL1        0.2306
     26 C         138.3261  140.3971  163.1623 C.3     1  UNL1        0.1804
     27 O         137.6174  140.2517  164.4763 O.3     1  UNL1       -0.3785
     28 C         139.2433  139.3122  162.6807 C.3     1  UNL1        0.1494
     29 C         139.4518  138.0820  163.5131 C.3     1  UNL1        0.0349
     30 O         139.9519  139.4577  161.3667 O.3     1  UNL1       -0.3186
     31 C         139.7434  140.6880  160.5343 C.3     1  UNL1        0.3194
     32 C         138.8263  141.7728  161.0159 C.3     1  UNL1        0.2240
     33 O         138.6178  143.0031  160.1835 O.3     1  UNL1       -0.3758
     34 H         137.8609  139.4054  164.8831 H       1  UNL1        0.2106
     35 H         139.1451  142.9376  159.3720 H       1  UNL1        0.2107
     36 O         137.2005  142.7122  162.8115 O.3     1  UNL1       -0.4468
     37 C         137.9421  144.2319  164.7840 C.3     1  UNL1        0.1212
     38 C         137.7683  144.0076  163.3110 C.2     1  UNL1        0.3176
     39 O         138.1624  145.0786  162.3376 O.2     1  UNL1       -0.2501
@<TRIPOS>BOND
     1    37    38    1
     2    38    39    2
     3    38    36    1
     4    25    36    1
     5    25    26    1
     6    26    27    1
     7    26    28    1
     8    28    29    1
     9    28    30    1
    10    30    31    1
    11    31    24    1
    12    24     1    1
    13     1     2   ar
    14     2    16    1
    15    16    17   ar
    16    17    18   ar
    17    18    19   ar
    18    19    20    1
    19    19    21   ar
    20    21    22   ar
    21     2     3   ar
    22     3     4   ar
    23     4     5   ar
    24     5     6   ar
    25     6     7    1
    26     6     8   ar
    27     8     9   ar
    28     9    10    1
    29     9    11   ar
    30    11    12   ar
    31    12    13    2
    32    31    32    1
    33    32    33    1
    34    32    25    1
    35    12     1   ar
    36    22    16   ar
    37    11     4   ar
    38    27    34    1
    39    20    23    1
    40     7    14    1
    41    10    15    1
    42    33    35    1
@<TRIPOS>MOLECULE
*****
 39 42 0 0 0
SMALL
GASTEIGER

@<TRIPOS>ATOM
      1 C         141.6889  142.5453  166.2768 C.ar    1  UNL1        0.2144
      2 C         140.3101  142.0118  166.0233 C.ar    1  UNL1        0.1822
      3 O         139.6126  141.2047  167.0778 O.2     1  UNL1       -0.4500
      4 C         140.2939  140.9310  168.3859 C.ar    1  UNL1        0.1545
      5 C         139.5964  140.1239  169.4404 C.ar    1  UNL1        0.0744
      6 C         140.2778  139.8503  170.7484 C.ar    1  UNL1        0.1397
      7 O         139.5803  139.0432  171.8030 O.3     1  UNL1       -0.5053
      8 C         141.6566  140.3839  171.0019 C.ar    1  UNL1        0.0735
      9 C         142.3540  141.1910  169.9474 C.ar    1  UNL1        0.1428
     10 O         143.7328  141.7245  170.2009 O.3     1  UNL1       -0.5052
     11 C         141.6727  141.4646  168.6394 C.ar    1  UNL1        0.1104
     12 C         142.3702  142.2717  167.5848 C.ar    1  UNL1        0.2382
     13 O         143.7490  142.8053  167.8383 O.2     1  UNL1       -0.2830
     14 H         138.7190  138.7099  171.6447 H       1  UNL1        0.2922
     15 H         144.1584  141.5536  171.0180 H       1  UNL1        0.2922
     16 C         139.6288  142.2854  164.7152 C.ar    1  UNL1        0.0379
     17 C         139.5742  141.2201  163.6608 C.ar    1  UNL1        0.0062
     18 C         138.8929  141.4937  162.3528 C.ar    1  UNL1        0.0367
     19 C         138.2662  142.8327  162.0992 C.ar    1  UNL1        0.1337
     20 O         137.5849  143.1064  160.7912 O.3     1  UNL1       -0.5055
     21 C         138.3208  143.8981  163.1537 C.ar    1  UNL1        0.0367
     22 C         139.0021  143.6244  164.4617 C.ar    1  UNL1        0.0062
     23 H         137.5508  142.4409  160.1324 H       1  UNL1        0.2922
     24 O         142.3864  143.3525  165.2222 O.3     1  UNL1       -0.4441
     25 C         143.5817  140.9316  162.3136 C.3     1  UNL1        0.2306
     26 C         143.0101  141.6265  161.1135 C.3     1  UNL1        0.1804
     27 O         143.2180  141.0512  159.7439 O.3     1  UNL1       -0.3785
     28 C         142.2305  142.8968  161.2829 C.3     1  UNL1        0.1494
     29 C         141.6589  143.5917  160.0828 C.3     1  UNL1        0.0349
     30 O         142.0226  143.4721  162.6525 O.3     1  UNL1       -0.3186
     31 C         142.5943  142.7771  163.8526 C.3     1  UNL1        0.3194
     32 C         143.3738  141.5069  163.6831 C.3     1  UNL1        0.2240
     33 O         143.9455  140.8120  164.8833 O.3     1  UNL1       -0.3758
     34 H         142.7872  141.6189  159.0859 H       1  UNL1        0.2106
     35 H         143.7211  141.3119  165.6837 H       1  UNL1        0.2107
     36 O         144.3613  139.6614  162.1441 O.3     1  UNL1       -0.4468
     37 C         142.4251  138.0856  162.8639 C.3     1  UNL1        0.1212
     38 C         143.6424  138.3500  162.0282 C.2     1  UNL1        0.3176
     39 O         144.1407  137.3030  161.0767 O.2     1  UNL1       -0.2501
@<TRIPOS>BOND
     1    37    38    1
     2    38    39    2
     3    38    36    1
     4    25    36    1
     5    25    26    1
     6    26    27    1
     7    26    28    1
     8    28    29    1
     9    28    30    1
    10    30    31    1
    11    31    24    1
    12    24     1    1
    13     1     2   ar
    14     2    16    1
    15    16    17   ar
    16    17    18   ar
    17    18    19   ar
    18    19    20    1
    19    19    21   ar
    20    21    22   ar
    21     2     3   ar
    22     3     4   ar
    23     4     5   ar
    24     5     6   ar
    25     6     7    1
    26     6     8   ar
    27     8     9   ar
    28     9    10    1
    29     9    11   ar
    30    11    12   ar
    31    12    13    2
    32    31    32    1
    33    32    33    1
    34    32    25    1
    35    12     1   ar
    36    22    16   ar
    37    11     4   ar
    38    27    34    1
    39    20    23    1
    40     7    14    1
    41    10    15    1
    42    33    35    1
@<TRIPOS>MOLECULE
*****
 39 42 0 0 0
SMALL
GASTEIGER

@<TRIPOS>ATOM
      1 C         141.6965  138.5498  161.7754 C.ar    1  UNL1        0.2144
      2 C         140.2228  138.7814  161.9322 C.ar    1  UNL1        0.1822
      3 O         139.3729  139.0484  160.7254 O.2     1  UNL1       -0.4500
      4 C         139.9968  139.0837  159.3616 C.ar    1  UNL1        0.1545
      5 C         139.1470  139.3507  158.1548 C.ar    1  UNL1        0.0744
      6 C         139.7708  139.3860  156.7912 C.ar    1  UNL1        0.1397
      7 O         138.9210  139.6530  155.5843 O.3     1  UNL1       -0.5053
      8 C         141.2445  139.1544  156.6344 C.ar    1  UNL1        0.0735
      9 C         142.0943  138.8874  157.8412 C.ar    1  UNL1        0.1428
     10 O         143.5680  138.6558  157.6844 O.3     1  UNL1       -0.5052
     11 C         141.4705  138.8521  159.2049 C.ar    1  UNL1        0.1104
     12 C         142.3203  138.5851  160.4118 C.ar    1  UNL1        0.2382
     13 O         143.7940  138.3535  160.2550 O.2     1  UNL1       -0.2830
     14 H         138.0004  139.7977  155.6822 H       1  UNL1        0.2922
     15 H         143.9577  138.6778  156.8326 H       1  UNL1        0.2922
     16 C         139.5989  138.7461  163.2959 C.ar    1  UNL1        0.0379
     17 C         139.1314  140.0175  163.9400 C.ar    1  UNL1        0.0062
     18 C         138.5076  139.9821  165.3036 C.ar    1  UNL1        0.0367
     19 C         138.3513  138.6753  166.0232 C.ar    1  UNL1        0.1337
     20 O         137.7275  138.6400  167.3869 O.3     1  UNL1       -0.5055
     21 C         138.8188  137.4039  165.3791 C.ar    1  UNL1        0.0367
     22 C         139.4426  137.4393  164.0155 C.ar    1  UNL1        0.0062
     23 H         137.4354  139.4342  167.7892 H       1  UNL1        0.2922
     24 O         142.5463  138.2828  162.9823 O.3     1  UNL1       -0.4441
     25 C         143.9183  141.6378  164.5983 C.3     1  UNL1        0.2306
     26 C         143.3093  141.5630  165.9670 C.3     1  UNL1        0.1804
     27 O         143.5636  142.6563  166.9619 O.3     1  UNL1       -0.3785
     28 C         142.4459  140.3947  166.3409 C.3     1  UNL1        0.1494
     29 C         141.8369  140.3198  167.7096 C.3     1  UNL1        0.0349
     30 O         142.1915  139.3013  165.3460 O.3     1  UNL1       -0.3186
     31 C         142.8006  139.3762  163.9772 C.3     1  UNL1        0.3194
     32 C         143.6640  140.5444  163.6034 C.3     1  UNL1        0.2240
     33 O         144.2730  140.6193  162.2347 O.3     1  UNL1       -0.3758
     34 H         143.1002  142.4544  167.7898 H       1  UNL1        0.2106
     35 H         144.0109  139.8393  161.7210 H       1  UNL1        0.2107
     36 O         144.7817  142.8060  164.2245 O.3     1  UNL1       -0.4468
     37 C         143.5950  145.1014  163.9538 C.3     1  UNL1        0.1212
     38 C         144.2360  143.8904  163.3433 C.2     1  UNL1        0.3176
     39 O         144.3313  143.7637  161.8517 O.2     1  UNL1       -0.2501
@<TRIPOS>BOND
     1    37    38    1
     2    38    39    2
     3    38    36    1
     4    25    36    1
     5    25    26    1
     6    26    27    1
     7    26    28    1
     8    28    29    1
     9    28    30    1
    10    30    31    1
    11    31    24    1
    12    24     1    1
    13     1     2   ar
    14     2    16    1
    15    16    17   ar
    16    17    18   ar
    17    18    19   ar
    18    19    20    1
    19    19    21   ar
    20    21    22   ar
    21     2     3   ar
    22     3     4   ar
    23     4     5   ar
    24     5     6   ar
    25     6     7    1
    26     6     8   ar
    27     8     9   ar
    28     9    10    1
    29     9    11   ar
    30    11    12   ar
    31    12    13    2
    32    31    32    1
    33    32    33    1
    34    32    25    1
    35    12     1   ar
    36    22    16   ar
    37    11     4   ar
    38    27    34    1
    39    20    23    1
    40     7    14    1
    41    10    15    1
    42    33    35    1
