@<TRIPOS>MOLECULE
*****
 40 43 0 0 0
SMALL
GASTEIGER

@<TRIPOS>ATOM
      1 N         140.4990  143.0756  164.1140 N.am    1  UNL1       -0.2770
      2 C         141.3980  142.3866  163.1306 C.2     1  UNL1        0.2294
      3 O         142.0092  142.1003  163.5548 O.2     1  UNL1       -0.2747
      4 C         141.0347  142.3565  161.6755 C.3     1  UNL1        0.1208
      5 C         139.8095  141.6184  161.2236 C.3     1  UNL1        0.0804
      6 N         139.4462  141.5882  159.7686 N.3     1  UNL1       -0.2969
      7 C         140.3080  142.2962  158.7655 C.3     1  UNL1        0.0714
      8 C         141.5331  143.0343  159.2175 C.3     1  UNL1        0.0487
      9 C         141.8965  143.0644  160.6725 C.3     1  UNL1        0.1177
     10 O         143.0200  143.8813  160.1065 O.3     1  UNL1       -0.3821
     11 H         138.5120  141.9902  159.6899 H       1  UNL1        0.1233
     12 H         142.9164  143.9509  159.1445 H       1  UNL1        0.2107
     13 C         142.6500  143.3782  161.9309 C.ar    1  UNL1        0.0046
     14 C         142.4192  144.6808  162.6382 C.ar    1  UNL1        0.0004
     15 C         143.1728  144.9945  163.8967 C.ar    1  UNL1        0.0317
     16 C         144.1570  144.0059  164.4478 C.ar    1  UNL1        0.1674
     17 F         144.9106  144.3198  165.7063 F       1  UNL1       -0.2018
     18 C         144.3878  142.7034  163.7406 C.ar    1  UNL1        0.1671
     19 F         145.3720  141.7147  164.2917 F       1  UNL1       -0.2018
     20 C         143.6342  142.3896  162.4821 C.ar    1  UNL1        0.0299
     21 C         139.2366  143.7344  163.6424 C.3     1  UNL1        0.0758
     22 C         137.7398  143.8310  163.6521 C.3     1  UNL1        0.0215
     23 C         138.5470  144.7790  162.8157 C.3     1  UNL1        0.0215
     24 C         140.8623  143.1058  165.5690 C.3     1  UNL1        0.1201
     25 C         138.9749  139.8717  166.8838 C.ar    1  UNL1       -0.0194
     26 C         139.5102  140.9211  165.9553 C.ar    1  UNL1       -0.0067
     27 C         140.3269  142.0564  166.4976 C.ar    1  UNL1        0.0004
     28 C         140.6083  142.1423  167.9684 C.ar    1  UNL1        0.0343
     29 C         140.0730  141.0929  168.8969 C.ar    1  UNL1        0.1381
     30 C         139.2563  139.9576  168.3546 C.ar    1  UNL1        0.0326
     31 C         138.1582  138.7364  166.3415 C.3     1  UNL1        0.0290
     32 C         138.7979  137.7081  165.4565 C.3     1  UNL1        0.0367
     33 C         138.7776  137.8834  163.9669 C.3     1  UNL1        0.1426
     34 C         141.2820  137.2335  163.7305 C.3     1  UNL1        0.1741
     35 O         140.0659  137.9333  163.2000 O.3     1  UNL1       -0.3511
     36 O         140.3543  141.1788  170.3679 O.3     1  UNL1       -0.4728
     37 C         141.6289  140.6146  170.9219 C.3     1  UNL1        0.2373
     38 C         142.7889  140.3455  170.0096 C.3     1  UNL1        0.1894
     39 O         142.8360  139.0770  169.2105 O.3     1  UNL1       -0.3471
     40 C         142.8628  139.1353  167.7119 C.3     1  UNL1        0.1743
@<TRIPOS>BOND
     1    34    35    1
     2    35    33    1
     3    33    32    1
     4    32    31    1
     5    31    25    1
     6    25    26   ar
     7    26    27   ar
     8    27    24    1
     9    24     1    1
    10     1     2   am
    11     2     3    2
    12     4     2    1
    13     4     5    1
    14     5     6    1
    15     6     7    1
    16     7     8    1
    17     8     9    1
    18     9    10    1
    19     9    13    1
    20    13    14   ar
    21    14    15   ar
    22    15    16   ar
    23    16    17    1
    24    16    18   ar
    25    18    19    1
    26    18    20   ar
    27     1    21    1
    28    21    22    1
    29    22    23    1
    30    27    28   ar
    31    28    29   ar
    32    29    36    1
    33    36    37    1
    34    37    38    1
    35    38    39    1
    36    39    40    1
    37    29    30   ar
    38    30    25   ar
    39     9     4    1
    40    20    13   ar
    41    23    21    1
    42     6    11    1
    43    10    12    1
@<TRIPOS>MOLECULE
*****
 40 43 0 0 0
SMALL
GASTEIGER

@<TRIPOS>ATOM
      1 N         138.5677  140.1950  163.9853 N.am    1  UNL1       -0.2770
      2 C         137.8935  141.2514  163.1610 C.2     1  UNL1        0.2294
      3 O         137.5512  141.7501  163.6802 O.2     1  UNL1       -0.2747
      4 C         137.9693  141.1964  161.6639 C.3     1  UNL1        0.1208
      5 C         137.4159  140.0123  160.9279 C.3     1  UNL1        0.0804
      6 N         137.4917  139.9573  159.4308 N.3     1  UNL1       -0.2969
      7 C         138.1208  141.0865  158.6697 C.3     1  UNL1        0.0714
      8 C         138.6741  142.2706  159.4057 C.3     1  UNL1        0.0487
      9 C         138.5984  142.3255  160.9028 C.3     1  UNL1        0.1177
     10 O         139.2838  143.6313  160.6285 O.3     1  UNL1       -0.3821
     11 H         136.5341  139.8703  159.0905 H       1  UNL1        0.1233
     12 H         139.4048  143.7383  159.6721 H       1  UNL1        0.2107
     13 C         138.7606  142.8340  162.3046 C.ar    1  UNL1        0.0046
     14 C         137.6313  143.5587  162.9750 C.ar    1  UNL1        0.0004
     15 C         137.7937  144.0671  164.3768 C.ar    1  UNL1        0.0317
     16 C         139.0853  143.8508  165.1083 C.ar    1  UNL1        0.1674
     17 F         139.2475  144.3593  166.5102 F       1  UNL1       -0.2018
     18 C         140.2146  143.1261  164.4380 C.ar    1  UNL1        0.1671
     19 F         141.5062  142.9098  165.1693 F       1  UNL1       -0.2018
     20 C         140.0522  142.6177  163.0360 C.ar    1  UNL1        0.0299
     21 C         139.3176  139.0837  163.3126 C.3     1  UNL1        0.0758
     22 C         139.4817  137.6234  163.0113 C.3     1  UNL1        0.0215
     23 C         140.4524  138.6190  162.4488 C.3     1  UNL1        0.0215
     24 C         138.4919  140.2500  165.4824 C.3     1  UNL1        0.1201
     25 C         142.2725  139.5305  166.4517 C.ar    1  UNL1       -0.0194
     26 C         141.0359  139.7435  165.6299 C.ar    1  UNL1       -0.0067
     27 C         139.7286  140.0369  166.3043 C.ar    1  UNL1        0.0004
     28 C         139.6578  140.1173  167.8004 C.ar    1  UNL1        0.0343
     29 C         140.8945  139.9043  168.6222 C.ar    1  UNL1        0.1381
     30 C         142.2018  139.6109  167.9479 C.ar    1  UNL1        0.0326
     31 C         143.5799  139.2371  165.7774 C.3     1  UNL1        0.0290
     32 C         143.8004  139.6564  164.3542 C.3     1  UNL1        0.0367
     33 C         145.1196  140.2375  163.9394 C.3     1  UNL1        0.1426
     34 C         144.5781  142.6461  163.1297 C.3     1  UNL1        0.1741
     35 O         145.1728  141.2928  162.8746 O.3     1  UNL1       -0.3511
     36 O         140.8238  139.9847  170.1184 O.3     1  UNL1       -0.4728
     37 C         141.9364  140.6324  170.8881 C.3     1  UNL1        0.2373
     38 C         142.0763  142.1259  170.8908 C.3     1  UNL1        0.1894
     39 O         140.8532  142.9938  170.8627 O.3     1  UNL1       -0.3471
     40 C         140.4195  143.6372  169.5790 C.3     1  UNL1        0.1743
@<TRIPOS>BOND
     1    34    35    1
     2    35    33    1
     3    33    32    1
     4    32    31    1
     5    31    25    1
     6    25    26   ar
     7    26    27   ar
     8    27    24    1
     9    24     1    1
    10     1     2   am
    11     2     3    2
    12     4     2    1
    13     4     5    1
    14     5     6    1
    15     6     7    1
    16     7     8    1
    17     8     9    1
    18     9    10    1
    19     9    13    1
    20    13    14   ar
    21    14    15   ar
    22    15    16   ar
    23    16    17    1
    24    16    18   ar
    25    18    19    1
    26    18    20   ar
    27     1    21    1
    28    21    22    1
    29    22    23    1
    30    27    28   ar
    31    28    29   ar
    32    29    36    1
    33    36    37    1
    34    37    38    1
    35    38    39    1
    36    39    40    1
    37    29    30   ar
    38    30    25   ar
    39     9     4    1
    40    20    13   ar
    41    23    21    1
    42     6    11    1
    43    10    12    1
@<TRIPOS>MOLECULE
*****
 40 43 0 0 0
SMALL
GASTEIGER

@<TRIPOS>ATOM
      1 N         140.0725  143.9433  164.0887 N.am    1  UNL1       -0.2770
      2 C         141.1444  144.7181  163.3810 C.2     1  UNL1        0.2294
      3 O         141.6453  144.9686  163.9483 O.2     1  UNL1       -0.2747
      4 C         141.0972  144.8734  161.8898 C.3     1  UNL1        0.1208
      5 C         139.9785  145.6416  161.2507 C.3     1  UNL1        0.0804
      6 N         139.9313  145.7968  159.7595 N.3     1  UNL1       -0.2969
      7 C         141.0029  145.1839  158.9074 C.3     1  UNL1        0.0714
      8 C         142.1216  144.4157  159.5465 C.3     1  UNL1        0.0487
      9 C         142.1687  144.2605  161.0377 C.3     1  UNL1        0.1177
     10 O         143.4059  143.5022  160.6576 O.3     1  UNL1       -0.3821
     11 H         139.9393  146.7985  159.5674 H       1  UNL1        0.1233
     12 H         143.5103  143.5164  159.6933 H       1  UNL1        0.2107
     13 C         142.6455  143.8419  162.3969 C.ar    1  UNL1        0.0046
     14 C         143.4418  144.7945  163.2386 C.ar    1  UNL1        0.0004
     15 C         143.9186  144.3758  164.5978 C.ar    1  UNL1        0.0317
     16 C         143.5991  143.0046  165.1153 C.ar    1  UNL1        0.1674
     17 F         144.0759  142.5860  166.4745 F       1  UNL1       -0.2018
     18 C         142.8028  142.0520  164.2736 C.ar    1  UNL1        0.1671
     19 F         142.4832  140.6809  164.7910 F       1  UNL1       -0.2018
     20 C         142.3260  142.4707  162.9143 C.ar    1  UNL1        0.0299
     21 C         138.9535  143.3237  163.3051 C.3     1  UNL1        0.0758
     22 C         138.4787  142.3591  162.2591 C.3     1  UNL1        0.0215
     23 C         137.4902  143.2152  162.9939 C.3     1  UNL1        0.0215
     24 C         140.1196  143.7880  165.5799 C.3     1  UNL1        0.1201
     25 C         139.1686  139.9804  166.1692 C.ar    1  UNL1       -0.0194
     26 C         139.2285  141.3476  165.5553 C.ar    1  UNL1       -0.0067
     27 C         140.0597  142.4207  166.1938 C.ar    1  UNL1        0.0004
     28 C         140.8308  142.1265  167.4463 C.ar    1  UNL1        0.0343
     29 C         140.7708  140.7592  168.0602 C.ar    1  UNL1        0.1381
     30 C         139.9397  139.6861  167.4216 C.ar    1  UNL1        0.0326
     31 C         138.3375  138.9073  165.5306 C.3     1  UNL1        0.0290
     32 C         139.0032  137.7595  164.8310 C.3     1  UNL1        0.0367
     33 C         138.8807  137.6153  163.3430 C.3     1  UNL1        0.1426
     34 C         141.4668  137.4631  163.1445 C.3     1  UNL1        0.1741
     35 O         140.1115  137.4482  162.5019 O.3     1  UNL1       -0.3511
     36 O         141.5420  140.4649  169.3127 O.3     1  UNL1       -0.4728
     37 C         142.4716  141.4960  169.8808 C.3     1  UNL1        0.2373
     38 C         142.0935  142.2418  171.1262 C.3     1  UNL1        0.1894
     39 O         140.6790  142.2023  171.6238 O.3     1  UNL1       -0.3471
     40 C         139.6023  142.9378  170.8824 C.3     1  UNL1        0.1743
@<TRIPOS>BOND
     1    34    35    1
     2    35    33    1
     3    33    32    1
     4    32    31    1
     5    31    25    1
     6    25    26   ar
     7    26    27   ar
     8    27    24    1
     9    24     1    1
    10     1     2   am
    11     2     3    2
    12     4     2    1
    13     4     5    1
    14     5     6    1
    15     6     7    1
    16     7     8    1
    17     8     9    1
    18     9    10    1
    19     9    13    1
    20    13    14   ar
    21    14    15   ar
    22    15    16   ar
    23    16    17    1
    24    16    18   ar
    25    18    19    1
    26    18    20   ar
    27     1    21    1
    28    21    22    1
    29    22    23    1
    30    27    28   ar
    31    28    29   ar
    32    29    36    1
    33    36    37    1
    34    37    38    1
    35    38    39    1
    36    39    40    1
    37    29    30   ar
    38    30    25   ar
    39     9     4    1
    40    20    13   ar
    41    23    21    1
    42     6    11    1
    43    10    12    1
@<TRIPOS>MOLECULE
*****
 40 43 0 0 0
SMALL
GASTEIGER

@<TRIPOS>ATOM
      1 N         141.6115  143.1265  163.7144 N.am    1  UNL1       -0.2770
      2 C         140.8844  142.7512  162.4571 C.2     1  UNL1        0.2294
      3 O         140.2194  142.3788  162.6907 O.2     1  UNL1       -0.2747
      4 C         141.4676  143.1018  161.1204 C.3     1  UNL1        0.1208
      5 C         142.7276  142.4348  160.6536 C.3     1  UNL1        0.0804
      6 N         143.3108  142.7854  159.3169 N.3     1  UNL1       -0.2969
      7 C         142.6341  143.8029  158.4469 C.3     1  UNL1        0.0714
      8 C         141.3742  144.4697  158.9136 C.3     1  UNL1        0.0487
      9 C         140.7910  144.1192  160.2504 C.3     1  UNL1        0.1177
     10 O         139.7911  145.1377  159.7889 O.3     1  UNL1       -0.3821
     11 H         143.3545  141.9201  158.7786 H       1  UNL1        0.1233
     12 H         140.0442  145.4648  158.9115 H       1  UNL1        0.2107
     13 C         139.8605  144.1223  161.4268 C.ar    1  UNL1        0.0046
     14 C         139.9816  145.1875  162.4760 C.ar    1  UNL1        0.0004
     15 C         139.0511  145.1906  163.6525 C.ar    1  UNL1        0.0317
     16 C         137.9995  144.1286  163.7799 C.ar    1  UNL1        0.1674
     17 F         137.0690  144.1318  164.9565 F       1  UNL1       -0.2018
     18 C         137.8783  143.0634  162.7308 C.ar    1  UNL1        0.1671
     19 F         136.8268  142.0014  162.8581 F       1  UNL1       -0.2018
     20 C         138.8089  143.0603  161.5542 C.ar    1  UNL1        0.0299
     21 C         142.9217  143.8522  163.6348 C.3     1  UNL1        0.0758
     22 C         143.6929  145.1221  163.4281 C.3     1  UNL1        0.0215
     23 C         144.4201  143.8395  163.7037 C.3     1  UNL1        0.0215
     24 C         141.0282  142.7759  165.0511 C.3     1  UNL1        0.1201
     25 C         142.6213  140.6997  168.0347 C.ar    1  UNL1       -0.0194
     26 C         142.0576  141.8455  167.2477 C.ar    1  UNL1       -0.0067
     27 C         141.5919  141.6300  165.8382 C.ar    1  UNL1        0.0004
     28 C         141.6900  140.2689  165.2157 C.ar    1  UNL1        0.0343
     29 C         142.2536  139.1231  166.0027 C.ar    1  UNL1        0.1381
     30 C         142.7193  139.3385  167.4122 C.ar    1  UNL1        0.0326
     31 C         143.0869  140.9152  169.4443 C.3     1  UNL1        0.0290
     32 C         143.5931  142.2616  169.8694 C.3     1  UNL1        0.0367
     33 C         142.7409  143.1453  170.7313 C.3     1  UNL1        0.1426
     34 C         140.1765  143.0739  170.3200 C.3     1  UNL1        0.1741
     35 O         141.4976  143.7681  170.1687 O.3     1  UNL1       -0.3511
     36 O         142.3517  137.7618  165.3802 O.3     1  UNL1       -0.4728
     37 C         141.2323  137.2456  164.5256 C.3     1  UNL1        0.2373
     38 C         141.2726  137.4404  163.0388 C.3     1  UNL1        0.1894
     39 O         140.0095  137.3449  162.2354 O.3     1  UNL1       -0.3471
     40 C         138.7592  138.0162  162.7212 C.3     1  UNL1        0.1743
@<TRIPOS>BOND
     1    34    35    1
     2    35    33    1
     3    33    32    1
     4    32    31    1
     5    31    25    1
     6    25    26   ar
     7    26    27   ar
     8    27    24    1
     9    24     1    1
    10     1     2   am
    11     2     3    2
    12     4     2    1
    13     4     5    1
    14     5     6    1
    15     6     7    1
    16     7     8    1
    17     8     9    1
    18     9    10    1
    19     9    13    1
    20    13    14   ar
    21    14    15   ar
    22    15    16   ar
    23    16    17    1
    24    16    18   ar
    25    18    19    1
    26    18    20   ar
    27     1    21    1
    28    21    22    1
    29    22    23    1
    30    27    28   ar
    31    28    29   ar
    32    29    36    1
    33    36    37    1
    34    37    38    1
    35    38    39    1
    36    39    40    1
    37    29    30   ar
    38    30    25   ar
    39     9     4    1
    40    20    13   ar
    41    23    21    1
    42     6    11    1
    43    10    12    1
@<TRIPOS>MOLECULE
*****
 40 43 0 0 0
SMALL
GASTEIGER

@<TRIPOS>ATOM
      1 N         140.3101  141.1313  164.0621 N.am    1  UNL1       -0.2770
      2 C         140.6872  140.7652  162.6571 C.2     1  UNL1        0.2294
      3 O         141.2987  140.2576  162.7190 O.2     1  UNL1       -0.2747
      4 C         139.9326  141.3517  161.5010 C.3     1  UNL1        0.1208
      5 C         139.9914  142.8274  161.2383 C.3     1  UNL1        0.0804
      6 N         139.2368  143.4140  160.0822 N.3     1  UNL1       -0.2969
      7 C         138.4234  142.5248  159.1889 C.3     1  UNL1        0.0714
      8 C         138.3647  141.0492  159.4516 C.3     1  UNL1        0.0487
      9 C         139.1193  140.4627  160.6077 C.3     1  UNL1        0.1177
     10 O         138.4924  139.2200  160.0484 O.3     1  UNL1       -0.3821
     11 H         139.9231  143.8795  159.4884 H       1  UNL1        0.1233
     12 H         137.9575  139.4489  159.2723 H       1  UNL1        0.2107
     13 C         139.6561  139.4446  161.5696 C.ar    1  UNL1        0.0046
     14 C         141.0154  138.8493  161.3504 C.ar    1  UNL1        0.0004
     15 C         141.5522  137.8312  162.3123 C.ar    1  UNL1        0.0317
     16 C         140.7299  137.4083  163.4934 C.ar    1  UNL1        0.1674
     17 F         141.2668  136.3902  164.4552 F       1  UNL1       -0.2018
     18 C         139.3707  138.0036  163.7126 C.ar    1  UNL1        0.1671
     19 F         138.5482  137.5808  164.8936 F       1  UNL1       -0.2018
     20 C         138.8338  139.0218  162.7506 C.ar    1  UNL1        0.0299
     21 C         139.1786  142.0839  164.3109 C.3     1  UNL1        0.0758
     22 C         137.7104  142.3415  164.4791 C.3     1  UNL1        0.0215
     23 C         138.6866  143.4764  164.5737 C.3     1  UNL1        0.0215
     24 C         141.0647  140.5448  165.2182 C.3     1  UNL1        0.1201
     25 C         140.7148  142.0917  168.8561 C.ar    1  UNL1       -0.0194
     26 C         141.1946  141.8625  167.4536 C.ar    1  UNL1       -0.0067
     27 C         140.5849  140.7740  166.6208 C.ar    1  UNL1        0.0004
     28 C         139.4954  139.9148  167.1906 C.ar    1  UNL1        0.0343
     29 C         139.0156  140.1441  168.5931 C.ar    1  UNL1        0.1381
     30 C         139.6253  141.2325  169.4259 C.ar    1  UNL1        0.0326
     31 C         141.3245  143.1802  169.6889 C.3     1  UNL1        0.0290
     32 C         142.6660  142.9739  170.3273 C.3     1  UNL1        0.0367
     33 C         143.4744  141.7544  169.9966 C.3     1  UNL1        0.1426
     34 C         142.6571  139.2937  169.8313 C.3     1  UNL1        0.1741
     35 O         143.1578  140.4437  170.6540 O.3     1  UNL1       -0.3511
     36 O         137.9260  139.2848  169.1630 O.3     1  UNL1       -0.4728
     37 C         137.4846  139.4773  170.5836 C.3     1  UNL1        0.2373
     38 C         136.2540  138.7830  171.0873 C.3     1  UNL1        0.1894
     39 O         136.2754  137.3036  171.3338 O.3     1  UNL1       -0.3471
     40 C         136.4562  136.7780  172.7270 C.3     1  UNL1        0.1743
@<TRIPOS>BOND
     1    34    35    1
     2    35    33    1
     3    33    32    1
     4    32    31    1
     5    31    25    1
     6    25    26   ar
     7    26    27   ar
     8    27    24    1
     9    24     1    1
    10     1     2   am
    11     2     3    2
    12     4     2    1
    13     4     5    1
    14     5     6    1
    15     6     7    1
    16     7     8    1
    17     8     9    1
    18     9    10    1
    19     9    13    1
    20    13    14   ar
    21    14    15   ar
    22    15    16   ar
    23    16    17    1
    24    16    18   ar
    25    18    19    1
    26    18    20   ar
    27     1    21    1
    28    21    22    1
    29    22    23    1
    30    27    28   ar
    31    28    29   ar
    32    29    36    1
    33    36    37    1
    34    37    38    1
    35    38    39    1
    36    39    40    1
    37    29    30   ar
    38    30    25   ar
    39     9     4    1
    40    20    13   ar
    41    23    21    1
    42     6    11    1
    43    10    12    1
@<TRIPOS>MOLECULE
*****
 40 43 0 0 0
SMALL
GASTEIGER

@<TRIPOS>ATOM
      1 N         140.4136  142.8885  163.7483 N.am    1  UNL1       -0.2770
      2 C         141.2574  142.7183  162.5198 C.2     1  UNL1        0.2294
      3 O         141.9708  142.4712  162.7758 O.2     1  UNL1       -0.2747
      4 C         140.6795  143.0099  161.1667 C.3     1  UNL1        0.1208
      5 C         139.5968  142.1342  160.6089 C.3     1  UNL1        0.0804
      6 N         139.0189  142.4258  159.2558 N.3     1  UNL1       -0.2969
      7 C         139.5237  143.5931  158.4604 C.3     1  UNL1        0.0714
      8 C         140.6063  144.4687  159.0181 C.3     1  UNL1        0.0487
      9 C         141.1842  144.1771  160.3713 C.3     1  UNL1        0.1177
     10 O         141.9864  145.3894  160.0011 O.3     1  UNL1       -0.3821
     11 H         138.0179  142.5703  159.3881 H       1  UNL1        0.1233
     12 H         141.7153  145.7009  159.1234 H       1  UNL1        0.2107
     13 C         142.0407  144.3065  161.5958 C.ar    1  UNL1        0.0046
     14 C         141.6430  145.2488  162.6931 C.ar    1  UNL1        0.0004
     15 C         142.4995  145.3781  163.9177 C.ar    1  UNL1        0.0317
     16 C         143.7538  144.5653  164.0450 C.ar    1  UNL1        0.1674
     17 F         144.6103  144.6947  165.2697 F       1  UNL1       -0.2018
     18 C         144.1515  143.6231  162.9478 C.ar    1  UNL1        0.1671
     19 F         145.4057  142.8102  163.0751 F       1  UNL1       -0.2018
     20 C         143.2949  143.4937  161.7232 C.ar    1  UNL1        0.0299
     21 C         138.9919  143.3502  163.6235 C.3     1  UNL1        0.0758
     22 C         137.9992  144.4488  163.3835 C.3     1  UNL1        0.0215
     23 C         137.5222  143.0514  163.6476 C.3     1  UNL1        0.0215
     24 C         140.9915  142.5969  165.1014 C.3     1  UNL1        0.1201
     25 C         139.7192  140.7578  168.3800 C.ar    1  UNL1       -0.0194
     26 C         140.3767  141.7661  167.4851 C.ar    1  UNL1       -0.0067
     27 C         140.3339  141.5884  165.9963 C.ar    1  UNL1        0.0004
     28 C         139.6337  140.4023  165.4024 C.ar    1  UNL1        0.0343
     29 C         138.9762  139.3940  166.2973 C.ar    1  UNL1        0.1381
     30 C         139.0190  139.5717  167.7861 C.ar    1  UNL1        0.0326
     31 C         139.7620  140.9355  169.8689 C.3     1  UNL1        0.0290
     32 C         140.2544  142.2248  170.4564 C.3     1  UNL1        0.0367
     33 C         141.5510  142.2587  171.2100 C.3     1  UNL1        0.1426
     34 C         143.7396  142.4963  169.8303 C.3     1  UNL1        0.1741
     35 O         142.6868  143.1018  170.7107 O.3     1  UNL1       -0.3511
     36 O         138.2759  138.2078  165.7034 O.3     1  UNL1       -0.4728
     37 C         138.9953  137.3220  164.7299 C.3     1  UNL1        0.2373
     38 C         138.8765  137.5751  163.2561 C.3     1  UNL1        0.1894
     39 O         140.0907  137.9500  162.4593 O.3     1  UNL1       -0.3471
     40 C         141.4567  137.5748  162.9525 C.3     1  UNL1        0.1743
@<TRIPOS>BOND
     1    34    35    1
     2    35    33    1
     3    33    32    1
     4    32    31    1
     5    31    25    1
     6    25    26   ar
     7    26    27   ar
     8    27    24    1
     9    24     1    1
    10     1     2   am
    11     2     3    2
    12     4     2    1
    13     4     5    1
    14     5     6    1
    15     6     7    1
    16     7     8    1
    17     8     9    1
    18     9    10    1
    19     9    13    1
    20    13    14   ar
    21    14    15   ar
    22    15    16   ar
    23    16    17    1
    24    16    18   ar
    25    18    19    1
    26    18    20   ar
    27     1    21    1
    28    21    22    1
    29    22    23    1
    30    27    28   ar
    31    28    29   ar
    32    29    36    1
    33    36    37    1
    34    37    38    1
    35    38    39    1
    36    39    40    1
    37    29    30   ar
    38    30    25   ar
    39     9     4    1
    40    20    13   ar
    41    23    21    1
    42     6    11    1
    43    10    12    1
@<TRIPOS>MOLECULE
*****
 40 43 0 0 0
SMALL
GASTEIGER

@<TRIPOS>ATOM
      1 N         140.8756  143.4360  164.5991 N.am    1  UNL1       -0.2770
      2 C         141.7797  143.8299  163.4687 C.2     1  UNL1        0.2294
      3 O         142.5210  143.6700  163.7143 O.2     1  UNL1       -0.2747
      4 C         141.1994  144.3959  162.2066 C.3     1  UNL1        0.1208
      5 C         140.4367  145.6870  162.2448 C.3     1  UNL1        0.0804
      6 N         139.8564  146.2529  160.9827 N.3     1  UNL1       -0.2969
      7 C         140.0389  145.5278  159.6823 C.3     1  UNL1        0.0714
      8 C         140.8016  144.2367  159.6441 C.3     1  UNL1        0.0487
      9 C         141.3818  143.6708  160.9062 C.3     1  UNL1        0.1177
     10 O         141.8184  142.6227  159.9259 O.3     1  UNL1       -0.3821
     11 H         140.2627  147.1807  160.8620 H       1  UNL1        0.1233
     12 H         141.5064  142.8599  159.0387 H       1  UNL1        0.2107
     13 C         142.1137  142.7409  161.8279 C.ar    1  UNL1        0.0046
     14 C         141.4112  141.5456  162.4004 C.ar    1  UNL1        0.0004
     15 C         142.1432  140.6157  163.3221 C.ar    1  UNL1        0.0317
     16 C         143.5776  140.8811  163.6713 C.ar    1  UNL1        0.1674
     17 F         144.3095  139.9511  164.5931 F       1  UNL1       -0.2018
     18 C         144.2802  142.0763  163.0989 C.ar    1  UNL1        0.1671
     19 F         145.7146  142.3418  163.4481 F       1  UNL1       -0.2018
     20 C         143.5481  143.0063  162.1771 C.ar    1  UNL1        0.0299
     21 C         139.3914  143.6081  164.4672 C.3     1  UNL1        0.0758
     22 C         138.0794  143.1702  163.8868 C.3     1  UNL1        0.0215
     23 C         138.1326  144.3438  164.8193 C.3     1  UNL1        0.0215
     24 C         141.4559  142.8701  165.8612 C.3     1  UNL1        0.1201
     25 C         139.1452  139.7690  166.7521 C.ar    1  UNL1       -0.0194
     26 C         139.9208  140.7762  165.9559 C.ar    1  UNL1       -0.0067
     27 C         140.6803  141.8629  166.6575 C.ar    1  UNL1        0.0004
     28 C         140.6643  141.9423  168.1553 C.ar    1  UNL1        0.0343
     29 C         139.8888  140.9351  168.9515 C.ar    1  UNL1        0.1381
     30 C         139.1292  139.8484  168.2499 C.ar    1  UNL1        0.0326
     31 C         138.3856  138.6823  166.0505 C.3     1  UNL1        0.0290
     32 C         139.0893  137.7835  165.0774 C.3     1  UNL1        0.0367
     33 C         138.9381  138.0104  163.6024 C.3     1  UNL1        0.1426
     34 C         140.1987  138.0969  161.3323 C.3     1  UNL1        0.1741
     35 O         139.9359  137.4251  162.6474 O.3     1  UNL1       -0.3511
     36 O         139.8727  141.0145  170.4493 O.3     1  UNL1       -0.4728
     37 C         141.1635  141.0357  171.2131 C.3     1  UNL1        0.2373
     38 C         142.2921  140.1363  170.8037 C.3     1  UNL1        0.1894
     39 O         143.4720  140.7004  170.0693 O.3     1  UNL1       -0.3471
     40 C         143.6339  142.1858  169.9385 C.3     1  UNL1        0.1743
@<TRIPOS>BOND
     1    34    35    1
     2    35    33    1
     3    33    32    1
     4    32    31    1
     5    31    25    1
     6    25    26   ar
     7    26    27   ar
     8    27    24    1
     9    24     1    1
    10     1     2   am
    11     2     3    2
    12     4     2    1
    13     4     5    1
    14     5     6    1
    15     6     7    1
    16     7     8    1
    17     8     9    1
    18     9    10    1
    19     9    13    1
    20    13    14   ar
    21    14    15   ar
    22    15    16   ar
    23    16    17    1
    24    16    18   ar
    25    18    19    1
    26    18    20   ar
    27     1    21    1
    28    21    22    1
    29    22    23    1
    30    27    28   ar
    31    28    29   ar
    32    29    36    1
    33    36    37    1
    34    37    38    1
    35    38    39    1
    36    39    40    1
    37    29    30   ar
    38    30    25   ar
    39     9     4    1
    40    20    13   ar
    41    23    21    1
    42     6    11    1
    43    10    12    1
@<TRIPOS>MOLECULE
*****
 40 43 0 0 0
SMALL
GASTEIGER

@<TRIPOS>ATOM
      1 N         141.6525  143.1135  163.7884 N.am    1  UNL1       -0.2770
      2 C         140.8934  142.7647  162.5425 C.2     1  UNL1        0.2294
      3 O         140.2324  142.3912  162.7853 O.2     1  UNL1       -0.2747
      4 C         141.4460  143.1370  161.1986 C.3     1  UNL1        0.1208
      5 C         142.6946  142.4776  160.6922 C.3     1  UNL1        0.0804
      6 N         143.2472  142.8498  159.3483 N.3     1  UNL1       -0.2969
      7 C         142.5512  143.8816  158.5108 C.3     1  UNL1        0.0714
      8 C         141.3028  144.5410  159.0173 C.3     1  UNL1        0.0487
      9 C         140.7502  144.1687  160.3611 C.3     1  UNL1        0.1177
     10 O         139.7406  145.1948  159.9395 O.3     1  UNL1       -0.3821
     11 H         143.2780  141.9935  158.7951 H       1  UNL1        0.1233
     12 H         139.9737  145.5362  159.0620 H       1  UNL1        0.2107
     13 C         139.8470  144.1528  161.5586 C.ar    1  UNL1        0.0046
     14 C         140.0049  145.1896  162.6310 C.ar    1  UNL1        0.0004
     15 C         139.1017  145.1736  163.8284 C.ar    1  UNL1        0.0317
     16 C         138.0405  144.1209  163.9535 C.ar    1  UNL1        0.1674
     17 F         137.1373  144.1050  165.1510 F       1  UNL1       -0.2018
     18 C         137.8825  143.0841  162.8812 C.ar    1  UNL1        0.1671
     19 F         136.8214  142.0313  163.0062 F       1  UNL1       -0.2018
     20 C         138.7858  143.1000  161.6837 C.ar    1  UNL1        0.0299
     21 C         142.9642  143.8345  163.6904 C.3     1  UNL1        0.0758
     22 C         144.4628  143.8191  163.7523 C.3     1  UNL1        0.0215
     23 C         143.7375  145.0987  163.4586 C.3     1  UNL1        0.0215
     24 C         141.0999  142.7412  165.1323 C.3     1  UNL1        0.1201
     25 C         142.2858  139.0420  165.9445 C.ar    1  UNL1       -0.0194
     26 C         141.7272  140.2210  165.2043 C.ar    1  UNL1       -0.0067
     27 C         141.6586  141.5622  165.8725 C.ar    1  UNL1        0.0004
     28 C         142.1486  141.7244  167.2809 C.ar    1  UNL1        0.0343
     29 C         142.7072  140.5454  168.0210 C.ar    1  UNL1        0.1381
     30 C         142.7758  139.2042  167.3528 C.ar    1  UNL1        0.0326
     31 C         142.3544  137.7008  165.2763 C.3     1  UNL1        0.0290
     32 C         141.2172  137.2313  164.4183 C.3     1  UNL1        0.0367
     33 C         141.2999  137.3613  162.9262 C.3     1  UNL1        0.1426
     34 C         138.7549  137.8628  162.7795 C.3     1  UNL1        0.1741
     35 O         140.0453  137.4870  162.1136 O.3     1  UNL1       -0.3511
     36 O         143.1973  140.7076  169.4294 O.3     1  UNL1       -0.4728
     37 C         142.2315  140.6233  170.5740 C.3     1  UNL1        0.2373
     38 C         141.7392  141.8772  171.2339 C.3     1  UNL1        0.1894
     39 O         141.8000  143.1842  170.5005 O.3     1  UNL1       -0.3471
     40 C         140.5685  143.7336  169.8437 C.3     1  UNL1        0.1743
@<TRIPOS>BOND
     1    34    35    1
     2    35    33    1
     3    33    32    1
     4    32    31    1
     5    31    25    1
     6    25    26   ar
     7    26    27   ar
     8    27    24    1
     9    24     1    1
    10     1     2   am
    11     2     3    2
    12     4     2    1
    13     4     5    1
    14     5     6    1
    15     6     7    1
    16     7     8    1
    17     8     9    1
    18     9    10    1
    19     9    13    1
    20    13    14   ar
    21    14    15   ar
    22    15    16   ar
    23    16    17    1
    24    16    18   ar
    25    18    19    1
    26    18    20   ar
    27     1    21    1
    28    21    22    1
    29    22    23    1
    30    27    28   ar
    31    28    29   ar
    32    29    36    1
    33    36    37    1
    34    37    38    1
    35    38    39    1
    36    39    40    1
    37    29    30   ar
    38    30    25   ar
    39     9     4    1
    40    20    13   ar
    41    23    21    1
    42     6    11    1
    43    10    12    1
@<TRIPOS>MOLECULE
*****
 40 43 0 0 0
SMALL
GASTEIGER

@<TRIPOS>ATOM
      1 N         140.1044  143.8938  163.8051 N.am    1  UNL1       -0.2770
      2 C         141.1784  144.6399  163.0703 C.2     1  UNL1        0.2294
      3 O         141.6617  144.9373  163.6302 O.2     1  UNL1       -0.2747
      4 C         141.1628  144.6940  161.5714 C.3     1  UNL1        0.1208
      5 C         140.0128  145.3390  160.8561 C.3     1  UNL1        0.0804
      6 N         139.9972  145.3932  159.3572 N.3     1  UNL1       -0.2969
      7 C         141.1316  144.8023  158.5735 C.3     1  UNL1        0.0714
      8 C         142.2815  144.1573  159.2888 C.3     1  UNL1        0.0487
      9 C         142.2972  144.1032  160.7877 C.3     1  UNL1        0.1177
     10 O         143.5932  143.4099  160.4885 O.3     1  UNL1       -0.3821
     11 H         139.9424  146.3783  159.0987 H       1  UNL1        0.1233
     12 H         143.7236  143.3685  159.5282 H       1  UNL1        0.2107
     13 C         142.7629  143.8083  162.1827 C.ar    1  UNL1        0.0046
     14 C         143.4579  144.8706  162.9817 C.ar    1  UNL1        0.0004
     15 C         143.9236  144.5757  164.3768 C.ar    1  UNL1        0.0317
     16 C         143.6943  143.2184  164.9728 C.ar    1  UNL1        0.1674
     17 F         144.1600  142.9235  166.3679 F       1  UNL1       -0.2018
     18 C         142.9993  142.1561  164.1739 C.ar    1  UNL1        0.1671
     19 F         142.7700  140.7988  164.7699 F       1  UNL1       -0.2018
     20 C         142.5336  142.4510  162.7788 C.ar    1  UNL1        0.0299
     21 C         139.0148  143.2018  163.0409 C.3     1  UNL1        0.0758
     22 C         137.5660  143.0715  162.6749 C.3     1  UNL1        0.0215
     23 C         138.5763  142.1338  162.0834 C.3     1  UNL1        0.0215
     24 C         140.1200  143.8396  165.3040 C.3     1  UNL1        0.1201
     25 C         141.1918  140.9907  167.8506 C.ar    1  UNL1       -0.0194
     26 C         141.1315  142.3149  167.1485 C.ar    1  UNL1       -0.0067
     27 C         140.1803  142.5154  166.0061 C.ar    1  UNL1        0.0004
     28 C         139.2895  141.3918  165.5658 C.ar    1  UNL1        0.0343
     29 C         139.3499  140.0676  166.2678 C.ar    1  UNL1        0.1381
     30 C         140.3010  139.8671  167.4103 C.ar    1  UNL1        0.0326
     31 C         142.1430  140.7902  168.9930 C.3     1  UNL1        0.0290
     32 C         143.0438  141.9093  169.4242 C.3     1  UNL1        0.0367
     33 C         142.6177  142.8328  170.5267 C.3     1  UNL1        0.1426
     34 C         140.0541  143.2545  170.5270 C.3     1  UNL1        0.1741
     35 O         141.4530  143.7561  170.3236 O.3     1  UNL1       -0.3511
     36 O         138.4591  138.9439  165.8275 O.3     1  UNL1       -0.4728
     37 C         139.0230  137.8116  165.0213 C.3     1  UNL1        0.2373
     38 C         138.9331  137.8392  163.5242 C.3     1  UNL1        0.1894
     39 O         140.0690  137.3175  162.6950 O.3     1  UNL1       -0.3471
     40 C         141.4842  137.5227  163.1478 C.3     1  UNL1        0.1743
@<TRIPOS>BOND
     1    34    35    1
     2    35    33    1
     3    33    32    1
     4    32    31    1
     5    31    25    1
     6    25    26   ar
     7    26    27   ar
     8    27    24    1
     9    24     1    1
    10     1     2   am
    11     2     3    2
    12     4     2    1
    13     4     5    1
    14     5     6    1
    15     6     7    1
    16     7     8    1
    17     8     9    1
    18     9    10    1
    19     9    13    1
    20    13    14   ar
    21    14    15   ar
    22    15    16   ar
    23    16    17    1
    24    16    18   ar
    25    18    19    1
    26    18    20   ar
    27     1    21    1
    28    21    22    1
    29    22    23    1
    30    27    28   ar
    31    28    29   ar
    32    29    36    1
    33    36    37    1
    34    37    38    1
    35    38    39    1
    36    39    40    1
    37    29    30   ar
    38    30    25   ar
    39     9     4    1
    40    20    13   ar
    41    23    21    1
    42     6    11    1
    43    10    12    1
