@<TRIPOS>MOLECULE
*****
 27 28 0 0 0
SMALL
GASTEIGER

@<TRIPOS>ATOM
      1 C         139.9653  143.9309  164.5990 C.2     1  UNL1        0.0707
      2 C         140.4037  144.6813  163.3765 C.2     1  UNL1        0.0283
      3 C         139.4056  145.4723  162.5839 C.3     1  UNL1        0.0470
      4 N         141.8402  144.6408  162.9465 N.pl3   1  UNL1       -0.3192
      5 C         142.8383  143.8498  163.7391 C.2     1  UNL1        0.0283
      6 C         144.2748  143.8093  163.3091 C.3     1  UNL1        0.0470
      7 C         142.3999  143.0994  164.9616 C.2     1  UNL1        0.0707
      8 C         140.9634  143.1399  165.3916 C.3     1  UNL1        0.0814
      9 H         142.1280  145.1333  162.1441 H       1  UNL1        0.1516
     10 C         140.5250  142.3894  166.6142 C.ar    1  UNL1       -0.0077
     11 C         140.0735  140.9638  166.4973 C.ar    1  UNL1       -0.0032
     12 C         139.6351  140.2133  167.7198 C.ar    1  UNL1        0.0060
     13 C         139.6482  140.8884  169.0592 C.ar    1  UNL1        0.0752
     14 C         140.0997  142.3141  169.1761 C.ar    1  UNL1        0.2898
     15 C         140.5381  143.0646  167.9535 C.ar    1  UNL1        0.0716
     16 N         140.1128  142.9893  170.5155 N.pl3   1  UNL1        0.0809
     17 O         140.4617  142.2065  171.7466 O.2     1  UNL1        0.0415
     18 O         139.7770  144.4471  170.6237 O.co2   1  UNL1       -0.5760
     19 C         138.5288  143.9714  165.0290 C.2     1  UNL1        0.3387
     20 O         138.0276  145.1127  165.8633 O.2     1  UNL1       -0.2452
     21 O         137.5936  142.8706  164.6246 O.3     1  UNL1       -0.4456
     22 C         137.8698  140.5394  163.5115 C.3     1  UNL1        0.0513
     23 C         137.8957  142.0361  163.4154 C.3     1  UNL1        0.2089
     24 C         143.3979  142.3084  165.7543 C.2     1  UNL1        0.3388
     25 O         143.9620  142.8712  167.0250 O.2     1  UNL1       -0.2452
     26 O         143.8319  140.9545  165.2760 O.3     1  UNL1       -0.4415
     27 C         142.9614  140.1774  164.3335 C.3     1  UNL1        0.2559
@<TRIPOS>UNITY_ATOM_ATTR
16 1
charge 1
18 1
charge -1
@<TRIPOS>BOND
     1    22    23    1
     2    23    21    1
     3    21    19    1
     4    19    20    2
     5    19     1    1
     6     1     2    2
     7     2     3    1
     8     2     4    1
     9     4     5    1
    10     5     6    1
    11     5     7    2
    12     7    24    1
    13    24    25    2
    14    24    26    1
    15    26    27    1
    16     7     8    1
    17     8    10    1
    18    10    11   ar
    19    11    12   ar
    20    12    13   ar
    21    13    14   ar
    22    14    16    1
    23    16    17    2
    24    16    18    1
    25    14    15   ar
    26     8     1    1
    27    15    10   ar
    28     4     9    1
@<TRIPOS>MOLECULE
*****
 27 28 0 0 0
SMALL
GASTEIGER

@<TRIPOS>ATOM
      1 C         142.4186  143.0636  165.0553 C.2     1  UNL1        0.0707
      2 C         142.8747  143.8160  163.8405 C.2     1  UNL1        0.0283
      3 C         144.3193  143.7855  163.4378 C.3     1  UNL1        0.0470
      4 N         141.8861  144.5991  163.0283 N.pl3   1  UNL1       -0.3192
      5 C         140.4415  144.6297  163.4309 C.2     1  UNL1        0.0283
      6 C         139.4530  145.4127  162.6187 C.3     1  UNL1        0.0470
      7 C         139.9855  143.8773  164.6457 C.2     1  UNL1        0.0707
      8 C         140.9740  143.0942  165.4579 C.3     1  UNL1        0.0814
      9 H         142.1855  145.0929  162.2309 H       1  UNL1        0.1516
     10 C         140.5178  142.3418  166.6727 C.ar    1  UNL1       -0.0077
     11 C         140.0541  140.9210  166.5446 C.ar    1  UNL1       -0.0032
     12 C         139.5980  140.1685  167.7594 C.ar    1  UNL1        0.0060
     13 C         139.6056  140.8368  169.1023 C.ar    1  UNL1        0.0752
     14 C         140.0693  142.2576  169.2304 C.ar    1  UNL1        0.2898
     15 C         140.5254  143.0100  168.0156 C.ar    1  UNL1        0.0716
     16 N         140.0769  142.9259  170.5733 N.pl3   1  UNL1        0.0809
     17 O         139.6648  144.3627  170.6983 O.2     1  UNL1        0.0415
     18 O         140.4966  142.1573  171.7911 O.co2   1  UNL1       -0.5760
     19 C         143.4071  142.2806  165.8674 C.2     1  UNL1        0.3387
     20 O         143.8508  142.7922  167.2058 O.2     1  UNL1       -0.2452
     21 O         143.9519  140.9859  165.3413 O.3     1  UNL1       -0.4456
     22 C         143.2999  138.6727  166.3282 C.3     1  UNL1        0.0513
     23 C         143.0857  139.7615  165.3189 C.3     1  UNL1        0.2089
     24 C         138.5408  143.9078  165.0483 C.2     1  UNL1        0.3388
     25 O         138.0044  145.0705  165.8296 O.2     1  UNL1       -0.2452
     26 O         137.6325  142.7757  164.6697 O.3     1  UNL1       -0.4415
     27 C         137.8369  142.0522  163.3717 C.3     1  UNL1        0.2559
@<TRIPOS>UNITY_ATOM_ATTR
16 1
charge 1
18 1
charge -1
@<TRIPOS>BOND
     1    22    23    1
     2    23    21    1
     3    21    19    1
     4    19    20    2
     5    19     1    1
     6     1     2    2
     7     2     3    1
     8     2     4    1
     9     4     5    1
    10     5     6    1
    11     5     7    2
    12     7    24    1
    13    24    25    2
    14    24    26    1
    15    26    27    1
    16     7     8    1
    17     8    10    1
    18    10    11   ar
    19    11    12   ar
    20    12    13   ar
    21    13    14   ar
    22    14    16    1
    23    16    17    2
    24    16    18    1
    25    14    15   ar
    26     8     1    1
    27    15    10   ar
    28     4     9    1
@<TRIPOS>MOLECULE
*****
 27 28 0 0 0
SMALL
GASTEIGER

@<TRIPOS>ATOM
      1 C         139.2210  140.3915  166.0126 C.2     1  UNL1        0.0707
      2 C         138.7151  139.2973  166.9052 C.2     1  UNL1        0.0283
      3 C         137.9888  138.1244  166.3163 C.3     1  UNL1        0.0470
      4 N         138.9354  139.3761  168.3869 N.pl3   1  UNL1       -0.3192
      5 C         139.6616  140.5490  168.9759 C.2     1  UNL1        0.0283
      6 C         139.8819  140.6277  170.4575 C.3     1  UNL1        0.0470
      7 C         140.1675  141.6431  168.0832 C.2     1  UNL1        0.0707
      8 C         139.9472  141.5643  166.6015 C.3     1  UNL1        0.0814
      9 H         138.6033  138.6579  168.9728 H       1  UNL1        0.1516
     10 C         140.4531  142.6586  165.7089 C.ar    1  UNL1       -0.0077
     11 C         139.5421  143.7807  165.3077 C.ar    1  UNL1       -0.0032
     12 C         140.0479  144.8748  164.4151 C.ar    1  UNL1        0.0060
     13 C         141.4649  144.8470  163.9236 C.ar    1  UNL1        0.0752
     14 C         142.3759  143.7248  164.3247 C.ar    1  UNL1        0.2898
     15 C         141.8700  142.6306  165.2174 C.ar    1  UNL1        0.0716
     16 N         143.7928  143.6969  163.8332 N.pl3   1  UNL1        0.0809
     17 O         144.1966  144.5403  162.6603 O.2     1  UNL1        0.0415
     18 O         144.8059  142.8256  164.5146 O.co2   1  UNL1       -0.5760
     19 C         139.0007  140.3127  164.5309 C.2     1  UNL1        0.3387
     20 O         137.7687  140.9147  163.9228 O.2     1  UNL1       -0.2452
     21 O         140.0123  139.6320  163.6574 O.3     1  UNL1       -0.4456
     22 C         141.2113  137.4940  164.5186 C.3     1  UNL1        0.0513
     23 C         141.2119  138.9736  164.2718 C.3     1  UNL1        0.2089
     24 C         140.8937  142.8161  168.6722 C.2     1  UNL1        0.3388
     25 O         140.1213  143.9893  169.1983 O.2     1  UNL1       -0.2452
     26 O         142.3924  142.8157  168.7350 O.3     1  UNL1       -0.4415
     27 C         143.0889  142.5008  170.0256 C.3     1  UNL1        0.2559
@<TRIPOS>UNITY_ATOM_ATTR
16 1
charge 1
18 1
charge -1
@<TRIPOS>BOND
     1    22    23    1
     2    23    21    1
     3    21    19    1
     4    19    20    2
     5    19     1    1
     6     1     2    2
     7     2     3    1
     8     2     4    1
     9     4     5    1
    10     5     6    1
    11     5     7    2
    12     7    24    1
    13    24    25    2
    14    24    26    1
    15    26    27    1
    16     7     8    1
    17     8    10    1
    18    10    11   ar
    19    11    12   ar
    20    12    13   ar
    21    13    14   ar
    22    14    16    1
    23    16    17    2
    24    16    18    1
    25    14    15   ar
    26     8     1    1
    27    15    10   ar
    28     4     9    1
@<TRIPOS>MOLECULE
*****
 27 28 0 0 0
SMALL
GASTEIGER

@<TRIPOS>ATOM
      1 C         142.4975  143.0076  163.7015 C.2     1  UNL1        0.0707
      2 C         143.0085  143.8843  162.5969 C.2     1  UNL1        0.0283
      3 C         144.3972  143.6877  162.0648 C.3     1  UNL1        0.0470
      4 N         142.1309  144.9576  162.0242 N.pl3   1  UNL1       -0.3192
      5 C         140.7423  145.1542  162.5562 C.2     1  UNL1        0.0283
      6 C         139.8647  146.2274  161.9836 C.3     1  UNL1        0.0470
      7 C         140.2313  144.2775  163.6609 C.2     1  UNL1        0.0707
      8 C         141.1089  143.2042  164.2335 C.3     1  UNL1        0.0814
      9 H         142.4663  145.5329  161.2992 H       1  UNL1        0.1516
     10 C         140.5978  142.3276  165.3382 C.ar    1  UNL1       -0.0077
     11 C         140.9216  142.6546  166.7659 C.ar    1  UNL1       -0.0032
     12 C         140.4105  141.7780  167.8706 C.ar    1  UNL1        0.0060
     13 C         139.5757  140.5743  167.5476 C.ar    1  UNL1        0.0752
     14 C         139.2519  140.2473  166.1199 C.ar    1  UNL1        0.2898
     15 C         139.7630  141.1239  165.0152 C.ar    1  UNL1        0.0716
     16 N         138.4171  139.0436  165.7969 N.pl3   1  UNL1        0.0809
     17 O         137.3979  138.5516  166.7814 O.2     1  UNL1        0.0415
     18 O         138.6015  138.3320  164.4895 O.co2   1  UNL1       -0.5760
     19 C         143.3751  141.9344  164.2742 C.2     1  UNL1        0.3387
     20 O         144.4011  142.2792  165.3125 O.2     1  UNL1       -0.2452
     21 O         143.2266  140.5163  163.8084 O.3     1  UNL1       -0.4456
     22 C         142.8509  139.1919  166.0118 C.3     1  UNL1        0.0513
     23 C         143.5926  139.3845  164.7223 C.3     1  UNL1        0.2089
     24 C         138.8426  144.4741  164.1929 C.2     1  UNL1        0.3388
     25 O         138.6333  145.1764  165.5017 O.2     1  UNL1       -0.2452
     26 O         137.6633  143.9683  163.4161 O.3     1  UNL1       -0.4415
     27 C         137.8547  142.9225  162.3580 C.3     1  UNL1        0.2559
@<TRIPOS>UNITY_ATOM_ATTR
16 1
charge 1
18 1
charge -1
@<TRIPOS>BOND
     1    22    23    1
     2    23    21    1
     3    21    19    1
     4    19    20    2
     5    19     1    1
     6     1     2    2
     7     2     3    1
     8     2     4    1
     9     4     5    1
    10     5     6    1
    11     5     7    2
    12     7    24    1
    13    24    25    2
    14    24    26    1
    15    26    27    1
    16     7     8    1
    17     8    10    1
    18    10    11   ar
    19    11    12   ar
    20    12    13   ar
    21    13    14   ar
    22    14    16    1
    23    16    17    2
    24    16    18    1
    25    14    15   ar
    26     8     1    1
    27    15    10   ar
    28     4     9    1
@<TRIPOS>MOLECULE
*****
 27 28 0 0 0
SMALL
GASTEIGER

@<TRIPOS>ATOM
      1 C         140.1706  144.2784  163.7958 C.2     1  UNL1        0.0707
      2 C         140.6688  145.1548  162.6852 C.2     1  UNL1        0.0283
      3 C         139.7692  146.1986  162.0923 C.3     1  UNL1        0.0470
      4 N         142.0666  144.9876  162.1673 N.pl3   1  UNL1       -0.3192
      5 C         142.9662  143.9439  162.7600 C.2     1  UNL1        0.0283
      6 C         144.3640  143.7766  162.2421 C.3     1  UNL1        0.0470
      7 C         142.4680  143.0675  163.8707 C.2     1  UNL1        0.0707
      8 C         141.0702  143.2347  164.3886 C.3     1  UNL1        0.0814
      9 H         142.3936  145.5628  161.4383 H       1  UNL1        0.1516
     10 C         140.5720  142.3583  165.4994 C.ar    1  UNL1       -0.0077
     11 C         140.8484  142.7267  166.9269 C.ar    1  UNL1       -0.0032
     12 C         140.3503  141.8503  168.0376 C.ar    1  UNL1        0.0060
     13 C         139.5757  140.6054  167.7208 C.ar    1  UNL1        0.0752
     14 C         139.2993  140.2370  166.2933 C.ar    1  UNL1        0.2898
     15 C         139.7975  141.1134  165.1825 C.ar    1  UNL1        0.0716
     16 N         138.5247  138.9921  165.9765 N.pl3   1  UNL1        0.0809
     17 O         138.8984  138.1587  164.7866 O.2     1  UNL1        0.0415
     18 O         137.3765  138.5807  166.8495 O.co2   1  UNL1       -0.5760
     19 C         138.7728  144.4457  164.3137 C.2     1  UNL1        0.3387
     20 O         138.5377  145.1163  165.6347 O.2     1  UNL1       -0.2452
     21 O         137.6102  143.9424  163.5107 O.3     1  UNL1       -0.4456
     22 C         138.1507  142.6138  161.3444 C.3     1  UNL1        0.0513
     23 C         137.7131  142.6370  162.7790 C.3     1  UNL1        0.2089
     24 C         143.3676  142.0237  164.4636 C.2     1  UNL1        0.3388
     25 O         144.1382  142.3212  165.7156 O.2     1  UNL1       -0.2452
     26 O         143.4965  140.6825  163.8043 O.3     1  UNL1       -0.4415
     27 C         144.7993  139.9413  163.8605 C.3     1  UNL1        0.2559
@<TRIPOS>UNITY_ATOM_ATTR
16 1
charge 1
18 1
charge -1
@<TRIPOS>BOND
     1    22    23    1
     2    23    21    1
     3    21    19    1
     4    19    20    2
     5    19     1    1
     6     1     2    2
     7     2     3    1
     8     2     4    1
     9     4     5    1
    10     5     6    1
    11     5     7    2
    12     7    24    1
    13    24    25    2
    14    24    26    1
    15    26    27    1
    16     7     8    1
    17     8    10    1
    18    10    11   ar
    19    11    12   ar
    20    12    13   ar
    21    13    14   ar
    22    14    16    1
    23    16    17    2
    24    16    18    1
    25    14    15   ar
    26     8     1    1
    27    15    10   ar
    28     4     9    1
@<TRIPOS>MOLECULE
*****
 27 28 0 0 0
SMALL
GASTEIGER

@<TRIPOS>ATOM
      1 C         139.3183  139.3347  164.4657 C.2     1  UNL1        0.0707
      2 C         138.6466  139.6054  163.1521 C.2     1  UNL1        0.0283
      3 C         138.0330  138.4773  162.3770 C.3     1  UNL1        0.0470
      4 N         138.5886  141.0042  162.6136 N.pl3   1  UNL1       -0.3192
      5 C         139.2021  142.1323  163.3887 C.2     1  UNL1        0.0283
      6 C         139.1441  143.5311  162.8502 C.3     1  UNL1        0.0470
      7 C         139.8738  141.8617  164.7023 C.2     1  UNL1        0.0707
      8 C         139.9319  140.4629  165.2408 C.3     1  UNL1        0.0814
      9 H         138.1477  141.1819  161.7515 H       1  UNL1        0.1516
     10 C         140.6036  140.1922  166.5545 C.ar    1  UNL1       -0.0077
     11 C         142.0421  139.7685  166.5880 C.ar    1  UNL1       -0.0032
     12 C         142.7138  139.4979  167.9016 C.ar    1  UNL1        0.0060
     13 C         141.9470  139.6509  169.1817 C.ar    1  UNL1        0.0752
     14 C         140.5085  140.0746  169.1482 C.ar    1  UNL1        0.2898
     15 C         139.8368  140.3453  167.8345 C.ar    1  UNL1        0.0716
     16 N         139.7416  140.2277  170.4282 N.pl3   1  UNL1        0.0809
     17 O         138.2859  139.8694  170.4779 O.2     1  UNL1        0.0415
     18 O         140.4306  140.7390  171.6586 O.co2   1  UNL1       -0.5760
     19 C         139.3764  137.9359  165.0042 C.2     1  UNL1        0.3387
     20 O         138.2353  137.3963  165.8146 O.2     1  UNL1       -0.2452
     21 O         140.5755  137.0768  164.7324 O.3     1  UNL1       -0.4456
     22 C         142.4485  138.1373  163.2772 C.3     1  UNL1        0.0513
     23 C         141.2960  137.1879  163.4215 C.3     1  UNL1        0.2089
     24 C         140.4874  142.9898  165.4775 C.2     1  UNL1        0.3388
     25 O         139.6516  143.7804  166.4399 O.2     1  UNL1       -0.2452
     26 O         141.9369  143.3273  165.2902 O.3     1  UNL1       -0.4415
     27 C         142.7377  142.6326  164.2290 C.3     1  UNL1        0.2559
@<TRIPOS>UNITY_ATOM_ATTR
16 1
charge 1
18 1
charge -1
@<TRIPOS>BOND
     1    22    23    1
     2    23    21    1
     3    21    19    1
     4    19    20    2
     5    19     1    1
     6     1     2    2
     7     2     3    1
     8     2     4    1
     9     4     5    1
    10     5     6    1
    11     5     7    2
    12     7    24    1
    13    24    25    2
    14    24    26    1
    15    26    27    1
    16     7     8    1
    17     8    10    1
    18    10    11   ar
    19    11    12   ar
    20    12    13   ar
    21    13    14   ar
    22    14    16    1
    23    16    17    2
    24    16    18    1
    25    14    15   ar
    26     8     1    1
    27    15    10   ar
    28     4     9    1
@<TRIPOS>MOLECULE
*****
 27 28 0 0 0
SMALL
GASTEIGER

@<TRIPOS>ATOM
      1 C         139.8666  141.7876  164.6916 C.2     1  UNL1        0.0707
      2 C         139.1926  142.0482  163.3772 C.2     1  UNL1        0.0283
      3 C         139.1232  143.4446  162.8337 C.3     1  UNL1        0.0470
      4 N         138.5879  140.9125  162.6062 N.pl3   1  UNL1       -0.3192
      5 C         138.6573  139.5161  163.1496 C.2     1  UNL1        0.0283
      6 C         138.0526  138.3804  162.3786 C.3     1  UNL1        0.0470
      7 C         139.3313  139.2555  164.4640 C.2     1  UNL1        0.0707
      8 C         139.9360  140.3913  165.2350 C.3     1  UNL1        0.0814
      9 H         138.1455  141.0835  161.7435 H       1  UNL1        0.1516
     10 C         140.6100  140.1306  166.5495 C.ar    1  UNL1       -0.0077
     11 C         142.0450  139.6951  166.5832 C.ar    1  UNL1       -0.0032
     12 C         142.7191  139.4345  167.8976 C.ar    1  UNL1        0.0060
     13 C         141.9581  139.6093  169.1784 C.ar    1  UNL1        0.0752
     14 C         140.5231  140.0448  169.1447 C.ar    1  UNL1        0.2898
     15 C         139.8491  140.3055  167.8303 C.ar    1  UNL1        0.0716
     16 N         139.7622  140.2196  170.4255 N.pl3   1  UNL1        0.0809
     17 O         140.4222  140.8647  171.6080 O.2     1  UNL1        0.0415
     18 O         138.3412  139.7494  170.5237 O.co2   1  UNL1       -0.5760
     19 C         140.4713  142.9234  165.4626 C.2     1  UNL1        0.3387
     20 O         139.6072  143.7756  166.3441 O.2     1  UNL1       -0.2452
     21 O         141.9401  143.2070  165.3521 O.3     1  UNL1       -0.4456
     22 C         143.5658  144.8053  164.1062 C.3     1  UNL1        0.0513
     23 C         142.5059  143.7445  164.0711 C.3     1  UNL1        0.2089
     24 C         139.4007  137.8591  165.0075 C.2     1  UNL1        0.3388
     25 O         138.2846  137.3290  165.8580 O.2     1  UNL1       -0.2452
     26 O         140.5861  136.9929  164.7005 O.3     1  UNL1       -0.4415
     27 C         141.5531  137.3977  163.6276 C.3     1  UNL1        0.2559
@<TRIPOS>UNITY_ATOM_ATTR
16 1
charge 1
18 1
charge -1
@<TRIPOS>BOND
     1    22    23    1
     2    23    21    1
     3    21    19    1
     4    19    20    2
     5    19     1    1
     6     1     2    2
     7     2     3    1
     8     2     4    1
     9     4     5    1
    10     5     6    1
    11     5     7    2
    12     7    24    1
    13    24    25    2
    14    24    26    1
    15    26    27    1
    16     7     8    1
    17     8    10    1
    18    10    11   ar
    19    11    12   ar
    20    12    13   ar
    21    13    14   ar
    22    14    16    1
    23    16    17    2
    24    16    18    1
    25    14    15   ar
    26     8     1    1
    27    15    10   ar
    28     4     9    1
@<TRIPOS>MOLECULE
*****
 27 28 0 0 0
SMALL
GASTEIGER

@<TRIPOS>ATOM
      1 C         139.1889  140.1004  166.0737 C.2     1  UNL1        0.0707
      2 C         138.5757  139.1393  167.0484 C.2     1  UNL1        0.0283
      3 C         137.8242  137.9412  166.5484 C.3     1  UNL1        0.0470
      4 N         138.7138  139.3762  168.5231 N.pl3   1  UNL1       -0.3192
      5 C         139.4652  140.5742  169.0232 C.2     1  UNL1        0.0283
      6 C         139.6033  140.8111  170.4979 C.3     1  UNL1        0.0470
      7 C         140.0784  141.5354  168.0485 C.2     1  UNL1        0.0707
      8 C         139.9403  141.2985  166.5738 C.3     1  UNL1        0.0814
      9 H         138.3113  138.7453  169.1629 H       1  UNL1        0.1516
     10 C         140.5536  142.2597  165.5990 C.ar    1  UNL1       -0.0077
     11 C         142.0440  142.3175  165.4396 C.ar    1  UNL1       -0.0032
     12 C         142.6573  143.2786  164.4650 C.ar    1  UNL1        0.0060
     13 C         141.7803  144.1820  163.6497 C.ar    1  UNL1        0.0752
     14 C         140.2899  144.1243  163.8091 C.ar    1  UNL1        0.2898
     15 C         139.6766  143.1630  164.7838 C.ar    1  UNL1        0.0716
     16 N         139.4128  145.0276  162.9939 N.pl3   1  UNL1        0.0809
     17 O         139.9936  146.2455  162.3386 O.2     1  UNL1        0.0415
     18 O         137.9550  144.7130  162.8339 O.co2   1  UNL1       -0.5760
     19 C         139.0508  139.8635  164.5990 C.2     1  UNL1        0.3387
     20 O         137.7957  140.2743  163.8877 O.2     1  UNL1       -0.2452
     21 O         140.1678  139.2158  163.8356 O.3     1  UNL1       -0.4456
     22 C         142.2943  138.4437  165.1131 C.3     1  UNL1        0.0513
     23 C         140.9766  138.1242  164.4714 C.3     1  UNL1        0.2089
     24 C         140.8299  142.7335  168.5485 C.2     1  UNL1        0.3388
     25 O         140.0896  143.9892  168.9022 O.2     1  UNL1       -0.2452
     26 O         142.3216  142.6758  168.6948 O.3     1  UNL1       -0.4415
     27 C         142.9398  142.6225  170.0604 C.3     1  UNL1        0.2559
@<TRIPOS>UNITY_ATOM_ATTR
16 1
charge 1
18 1
charge -1
@<TRIPOS>BOND
     1    22    23    1
     2    23    21    1
     3    21    19    1
     4    19    20    2
     5    19     1    1
     6     1     2    2
     7     2     3    1
     8     2     4    1
     9     4     5    1
    10     5     6    1
    11     5     7    2
    12     7    24    1
    13    24    25    2
    14    24    26    1
    15    26    27    1
    16     7     8    1
    17     8    10    1
    18    10    11   ar
    19    11    12   ar
    20    12    13   ar
    21    13    14   ar
    22    14    16    1
    23    16    17    2
    24    16    18    1
    25    14    15   ar
    26     8     1    1
    27    15    10   ar
    28     4     9    1
@<TRIPOS>MOLECULE
*****
 27 28 0 0 0
SMALL
GASTEIGER

@<TRIPOS>ATOM
      1 C         142.2425  142.4930  162.9809 C.2     1  UNL1        0.0707
      2 C         142.9190  143.7743  162.5929 C.2     1  UNL1        0.0283
      3 C         144.4167  143.8539  162.5678 C.3     1  UNL1        0.0470
      4 N         142.0978  144.9760  162.2301 N.pl3   1  UNL1       -0.3192
      5 C         140.6002  144.8963  162.2552 C.2     1  UNL1        0.0283
      6 C         139.7790  146.0980  161.8923 C.3     1  UNL1        0.0470
      7 C         139.9237  143.6150  162.6431 C.2     1  UNL1        0.0707
      8 C         140.7448  142.4134  163.0060 C.3     1  UNL1        0.0814
      9 H         142.5419  145.8169  161.9754 H       1  UNL1        0.1516
     10 C         140.0682  141.1320  163.3940 C.ar    1  UNL1       -0.0077
     11 C         139.8041  140.0798  162.3581 C.ar    1  UNL1       -0.0032
     12 C         139.1275  138.7985  162.7460 C.ar    1  UNL1        0.0060
     13 C         138.7151  138.5694  164.1699 C.ar    1  UNL1        0.0752
     14 C         138.9793  139.6216  165.2059 C.ar    1  UNL1        0.2898
     15 C         139.6559  140.9029  164.8179 C.ar    1  UNL1        0.0716
     16 N         138.5669  139.3924  166.6297 N.pl3   1  UNL1        0.0809
     17 O         139.3737  139.9820  167.7484 O.2     1  UNL1        0.0415
     18 O         137.3477  138.5737  166.9349 O.co2   1  UNL1       -0.5760
     19 C         143.0636  141.2913  163.3438 C.2     1  UNL1        0.3387
     20 O         143.5930  140.3916  162.2667 O.2     1  UNL1       -0.2452
     21 O         143.3553  140.9893  164.7838 O.3     1  UNL1       -0.4456
     22 C         142.5072  138.5430  164.9993 C.3     1  UNL1        0.0513
     23 C         143.5753  139.5721  165.2233 C.3     1  UNL1        0.2089
     24 C         138.4260  143.5354  162.6682 C.2     1  UNL1        0.3388
     25 O         137.6764  143.1179  161.4379 O.2     1  UNL1       -0.2452
     26 O         137.6779  143.8732  163.9238 O.3     1  UNL1       -0.4415
     27 C         138.3778  144.5796  165.0467 C.3     1  UNL1        0.2559
@<TRIPOS>UNITY_ATOM_ATTR
16 1
charge 1
18 1
charge -1
@<TRIPOS>BOND
     1    22    23    1
     2    23    21    1
     3    21    19    1
     4    19    20    2
     5    19     1    1
     6     1     2    2
     7     2     3    1
     8     2     4    1
     9     4     5    1
    10     5     6    1
    11     5     7    2
    12     7    24    1
    13    24    25    2
    14    24    26    1
    15    26    27    1
    16     7     8    1
    17     8    10    1
    18    10    11   ar
    19    11    12   ar
    20    12    13   ar
    21    13    14   ar
    22    14    16    1
    23    16    17    2
    24    16    18    1
    25    14    15   ar
    26     8     1    1
    27    15    10   ar
    28     4     9    1
