@<TRIPOS>MOLECULE
*****
 35 38 0 0 0
SMALL
GASTEIGER

@<TRIPOS>ATOM
      1 C         141.6167  143.6778  162.0940 C.3     1  UNL1        0.1773
      2 C         141.9293  143.9197  160.6470 C.ar    1  UNL1        0.0364
      3 C         142.8729  143.2432  159.6973 C.ar    1  UNL1        0.1383
      4 F         143.7163  142.0956  160.1682 F       1  UNL1       -0.2044
      5 C         142.9731  143.7143  158.2768 C.ar    1  UNL1        0.0294
      6 C         142.1297  144.8620  157.8059 C.ar    1  UNL1        0.0024
      7 C         141.1861  145.5384  158.7556 C.ar    1  UNL1        0.0044
      8 C         141.0859  145.0673  160.1761 C.ar    1  UNL1        0.0538
      9 C         140.2521  145.5346  161.3321 C.2     1  UNL1        0.2494
     10 O         139.2637  146.6627  161.3072 O.2     1  UNL1       -0.2699
     11 N         140.5801  144.6759  162.5175 N.am    1  UNL1       -0.2657
     12 O         141.6813  141.2281  162.9568 O.2     1  UNL1       -0.2729
     13 C         142.2325  142.6230  162.9647 C.2     1  UNL1        0.2452
     14 N         143.3998  142.9632  163.8433 N.am    1  UNL1       -0.2988
     15 H         143.7617  143.8788  163.8485 H       1  UNL1        0.1498
     16 C         144.0157  141.9084  164.7140 C.3     1  UNL1        0.1164
     17 C         143.2536  141.3642  165.8857 C.ar    1  UNL1       -0.0024
     18 C         143.0574  139.8842  166.0309 C.ar    1  UNL1        0.0005
     19 C         142.2953  139.3402  167.2028 C.ar    1  UNL1        0.0369
     20 C         141.7294  140.2760  168.2294 C.ar    1  UNL1        0.1468
     21 C         141.9256  141.7560  168.0842 C.ar    1  UNL1        0.0369
     22 C         142.6878  142.3001  166.9123 C.ar    1  UNL1        0.0005
     23 O         140.9673  139.7319  169.4012 O.3     1  UNL1       -0.4045
     24 C         139.6686  140.3618  169.8092 C.3     1  UNL1        0.5753
     25 F         138.3699  140.9917  170.2173 F       1  UNL1       -0.1328
     26 F         140.3426  140.9821  170.9970 F       1  UNL1       -0.1328
     27 F         138.9945  139.7414  168.6215 F       1  UNL1       -0.1328
     28 C         139.9774  144.7945  163.8859 C.3     1  UNL1        0.1007
     29 C         138.6810  144.1070  164.1966 C.3     1  UNL1        0.0673
     30 C         138.6204  142.6092  164.2504 C.ar    1  UNL1        0.0607
     31 C         139.2587  141.8732  165.3910 C.ar    1  UNL1        0.0148
     32 C         139.1981  140.3754  165.4448 C.ar    1  UNL1        0.0028
     33 C         138.4991  139.6136  164.3579 C.ar    1  UNL1        0.0207
     34 C         137.8609  140.3495  163.2174 C.ar    1  UNL1        0.0984
     35 N         137.9215  141.8473  163.1636 N.ar    1  UNL1       -0.2481
@<TRIPOS>BOND
     1    12    13    2
     2    13    14   am
     3    14    16    1
     4    16    17    1
     5    17    18   ar
     6    18    19   ar
     7    19    20   ar
     8    20    23    1
     9    23    24    1
    10    24    25    1
    11    24    26    1
    12    24    27    1
    13    20    21   ar
    14    21    22   ar
    15    13     1    1
    16     1     2    1
    17     2     3   ar
    18     3     4    1
    19     3     5   ar
    20     5     6   ar
    21     6     7   ar
    22     7     8   ar
    23     8     9    1
    24     9    10    2
    25     9    11   am
    26    11    28    1
    27    28    29    1
    28    29    30    1
    29    30    31   ar
    30    31    32   ar
    31    32    33   ar
    32    33    34   ar
    33    34    35   ar
    34    22    17   ar
    35    11     1    1
    36    35    30   ar
    37     8     2   ar
    38    14    15    1
@<TRIPOS>MOLECULE
*****
 35 38 0 0 0
SMALL
GASTEIGER

@<TRIPOS>ATOM
      1 C         140.7525  138.6096  161.7729 C.3     1  UNL1        0.1773
      2 C         141.1852  138.3947  160.3528 C.ar    1  UNL1        0.0364
      3 C         142.4813  137.9301  159.7578 C.ar    1  UNL1        0.1383
      4 F         143.6360  137.5859  160.6513 F       1  UNL1       -0.2044
      5 C         142.6228  137.8096  158.2694 C.ar    1  UNL1        0.0294
      6 C         141.4681  138.1537  157.3760 C.ar    1  UNL1        0.0024
      7 C         140.1720  138.6183  157.9709 C.ar    1  UNL1        0.0044
      8 C         140.0305  138.7388  159.4593 C.ar    1  UNL1        0.0538
      9 C         138.8842  139.1664  160.3272 C.2     1  UNL1        0.2494
     10 O         137.5295  139.5981  159.8492 O.2     1  UNL1       -0.2699
     11 N         139.3305  139.0866  161.7571 N.am    1  UNL1       -0.2657
     12 O         141.3634  137.1796  163.8541 O.2     1  UNL1       -0.2729
     13 C         141.5942  138.3867  162.9943 C.2     1  UNL1        0.2452
     14 N         142.6668  139.3711  163.3559 N.am    1  UNL1       -0.2988
     15 H         142.8183  140.1635  162.7916 H       1  UNL1        0.1498
     16 C         143.5085  139.1482  164.5773 C.3     1  UNL1        0.1164
     17 C         143.1664  139.8445  165.8611 C.ar    1  UNL1       -0.0024
     18 C         142.8633  139.0424  167.0918 C.ar    1  UNL1        0.0005
     19 C         142.5212  139.7388  168.3755 C.ar    1  UNL1        0.0369
     20 C         142.4822  141.2374  168.4286 C.ar    1  UNL1        0.1468
     21 C         142.7852  142.0395  167.1979 C.ar    1  UNL1        0.0369
     22 C         143.1274  141.3431  165.9141 C.ar    1  UNL1        0.0005
     23 O         142.1401  141.9337  169.7124 O.3     1  UNL1       -0.4045
     24 C         141.2559  143.1452  169.6960 C.3     1  UNL1        0.5753
     25 F         140.3717  144.3568  169.6796 F       1  UNL1       -0.1328
     26 F         140.1845  142.3540  169.0060 F       1  UNL1       -0.1328
     27 F         142.3273  143.9365  170.3860 F       1  UNL1       -0.1328
     28 C         138.5004  139.4244  162.9600 C.3     1  UNL1        0.1007
     29 C         137.6917  140.6875  162.9824 C.3     1  UNL1        0.0673
     30 C         138.2119  141.8985  163.6986 C.ar    1  UNL1        0.0607
     31 C         139.1100  141.7375  164.8893 C.ar    1  UNL1        0.0148
     32 C         139.6302  142.9485  165.6054 C.ar    1  UNL1        0.0028
     33 C         139.2523  144.3205  165.1309 C.ar    1  UNL1        0.0207
     34 C         138.3542  144.4814  163.9403 C.ar    1  UNL1        0.0984
     35 N         137.8340  143.2704  163.2242 N.ar    1  UNL1       -0.2481
@<TRIPOS>BOND
     1    12    13    2
     2    13    14   am
     3    14    16    1
     4    16    17    1
     5    17    18   ar
     6    18    19   ar
     7    19    20   ar
     8    20    23    1
     9    23    24    1
    10    24    25    1
    11    24    26    1
    12    24    27    1
    13    20    21   ar
    14    21    22   ar
    15    13     1    1
    16     1     2    1
    17     2     3   ar
    18     3     4    1
    19     3     5   ar
    20     5     6   ar
    21     6     7   ar
    22     7     8   ar
    23     8     9    1
    24     9    10    2
    25     9    11   am
    26    11    28    1
    27    28    29    1
    28    29    30    1
    29    30    31   ar
    30    31    32   ar
    31    32    33   ar
    32    33    34   ar
    33    34    35   ar
    34    22    17   ar
    35    11     1    1
    36    35    30   ar
    37     8     2   ar
    38    14    15    1
@<TRIPOS>MOLECULE
*****
 35 38 0 0 0
SMALL
GASTEIGER

@<TRIPOS>ATOM
      1 C         141.1883  141.0754  166.6822 C.3     1  UNL1        0.1773
      2 C         141.3745  141.0797  168.1706 C.ar    1  UNL1        0.0364
      3 C         140.7726  141.9233  169.2550 C.ar    1  UNL1        0.1383
      4 F         139.7854  142.9981  168.9083 F       1  UNL1       -0.2044
      5 C         141.1581  141.6923  170.6860 C.ar    1  UNL1        0.0294
      6 C         142.1454  140.6175  171.0327 C.ar    1  UNL1        0.0024
      7 C         142.7472  139.7739  169.9483 C.ar    1  UNL1        0.0044
      8 C         142.3618  140.0049  168.5172 C.ar    1  UNL1        0.0538
      9 C         142.7857  139.3365  167.2431 C.2     1  UNL1        0.2494
     10 O         143.7633  138.2050  167.1240 O.2     1  UNL1       -0.2699
     11 N         142.0604  139.9980  166.1090 N.am    1  UNL1       -0.2657
     12 O         138.9088  141.5368  165.5242 O.2     1  UNL1       -0.2729
     13 C         140.2879  141.9883  165.9037 C.2     1  UNL1        0.2452
     14 N         140.7667  143.3527  165.5047 N.am    1  UNL1       -0.2988
     15 H         141.6719  143.6491  165.7538 H       1  UNL1        0.1498
     16 C         139.8664  144.2656  164.7262 C.3     1  UNL1        0.1164
     17 C         139.9800  144.3358  163.2322 C.ar    1  UNL1       -0.0024
     18 C         140.3372  145.6320  162.5672 C.ar    1  UNL1        0.0005
     19 C         140.4508  145.7021  161.0732 C.ar    1  UNL1        0.0369
     20 C         140.2072  144.4761  160.2440 C.ar    1  UNL1        0.1468
     21 C         139.8499  143.1799  160.9090 C.ar    1  UNL1        0.0369
     22 C         139.7363  143.1097  162.4031 C.ar    1  UNL1        0.0005
     23 O         140.3208  144.5463  158.7500 O.3     1  UNL1       -0.4045
     24 C         141.3432  145.4428  158.1169 C.3     1  UNL1        0.5753
     25 F         142.3656  146.3393  157.4837 F       1  UNL1       -0.1328
     26 F         140.2613  146.4115  157.7415 F       1  UNL1       -0.1328
     27 F         142.4252  144.4741  158.4923 F       1  UNL1       -0.1328
     28 C         142.1854  139.6443  164.6566 C.3     1  UNL1        0.1007
     29 C         143.3622  140.1319  163.8645 C.3     1  UNL1        0.0673
     30 C         143.5250  141.5972  163.5881 C.ar    1  UNL1        0.0607
     31 C         143.3320  142.1239  162.1968 C.ar    1  UNL1        0.0148
     32 C         143.4949  143.5892  161.9204 C.ar    1  UNL1        0.0028
     33 C         143.8507  144.5277  163.0351 C.ar    1  UNL1        0.0207
     34 C         144.0437  144.0010  164.4263 C.ar    1  UNL1        0.0984
     35 N         143.8808  142.5357  164.7027 N.ar    1  UNL1       -0.2481
@<TRIPOS>BOND
     1    12    13    2
     2    13    14   am
     3    14    16    1
     4    16    17    1
     5    17    18   ar
     6    18    19   ar
     7    19    20   ar
     8    20    23    1
     9    23    24    1
    10    24    25    1
    11    24    26    1
    12    24    27    1
    13    20    21   ar
    14    21    22   ar
    15    13     1    1
    16     1     2    1
    17     2     3   ar
    18     3     4    1
    19     3     5   ar
    20     5     6   ar
    21     6     7   ar
    22     7     8   ar
    23     8     9    1
    24     9    10    2
    25     9    11   am
    26    11    28    1
    27    28    29    1
    28    29    30    1
    29    30    31   ar
    30    31    32   ar
    31    32    33   ar
    32    33    34   ar
    33    34    35   ar
    34    22    17   ar
    35    11     1    1
    36    35    30   ar
    37     8     2   ar
    38    14    15    1
@<TRIPOS>MOLECULE
*****
 35 38 0 0 0
SMALL
GASTEIGER

@<TRIPOS>ATOM
      1 C         140.9249  139.8784  160.4802 C.3     1  UNL1        0.1773
      2 C         141.2907  138.9682  159.3454 C.ar    1  UNL1        0.0364
      3 C         142.5326  138.1801  159.0511 C.ar    1  UNL1        0.1383
      4 F         143.6957  138.2322  159.9969 F       1  UNL1       -0.2044
      5 C         142.6114  137.3399  157.8110 C.ar    1  UNL1        0.0294
      6 C         141.4483  137.2879  156.8652 C.ar    1  UNL1        0.0024
      7 C         140.2064  138.0759  157.1595 C.ar    1  UNL1        0.0044
      8 C         140.1276  138.9161  158.3996 C.ar    1  UNL1        0.0538
      9 C         139.0430  139.7941  158.9499 C.2     1  UNL1        0.2494
     10 O         137.7013  140.0350  158.3241 O.2     1  UNL1       -0.2699
     11 N         139.5358  140.3888  160.2358 N.am    1  UNL1       -0.2657
     12 O         142.8427  141.2846  161.5263 O.2     1  UNL1       -0.2729
     13 C         141.7955  140.2184  161.6535 C.2     1  UNL1        0.2452
     14 N         141.6187  139.4921  162.9540 N.am    1  UNL1       -0.2988
     15 H         140.9313  138.7922  163.0375 H       1  UNL1        0.1498
     16 C         142.4893  139.8321  164.1273 C.3     1  UNL1        0.1164
     17 C         141.9436  140.6641  165.2497 C.ar    1  UNL1       -0.0024
     18 C         142.0143  140.1595  166.6605 C.ar    1  UNL1        0.0005
     19 C         141.4687  140.9917  167.7829 C.ar    1  UNL1        0.0369
     20 C         140.8523  142.3285  167.4946 C.ar    1  UNL1        0.1468
     21 C         140.7816  142.8331  166.0838 C.ar    1  UNL1        0.0369
     22 C         141.3273  142.0009  164.9613 C.ar    1  UNL1        0.0005
     23 O         140.3067  143.1606  168.6170 O.3     1  UNL1       -0.4045
     24 C         140.5467  142.7507  170.0399 C.3     1  UNL1        0.5753
     25 F         140.7867  142.3409  171.4627 F       1  UNL1       -0.1328
     26 F         141.8249  143.5357  170.0503 F       1  UNL1       -0.1328
     27 F         139.2686  141.9658  170.0294 F       1  UNL1       -0.1328
     28 C         138.7733  141.3289  161.1217 C.3     1  UNL1        0.1007
     29 C         137.7091  140.7999  162.0370 C.3     1  UNL1        0.0673
     30 C         138.0892  139.9803  163.2343 C.ar    1  UNL1        0.0607
     31 C         137.9968  140.5732  164.6091 C.ar    1  UNL1        0.0148
     32 C         138.3769  139.7535  165.8065 C.ar    1  UNL1        0.0028
     33 C         138.8494  138.3409  165.6290 C.ar    1  UNL1        0.0207
     34 C         138.9418  137.7481  164.2543 C.ar    1  UNL1        0.0984
     35 N         138.5617  138.5678  163.0569 N.ar    1  UNL1       -0.2481
@<TRIPOS>BOND
     1    12    13    2
     2    13    14   am
     3    14    16    1
     4    16    17    1
     5    17    18   ar
     6    18    19   ar
     7    19    20   ar
     8    20    23    1
     9    23    24    1
    10    24    25    1
    11    24    26    1
    12    24    27    1
    13    20    21   ar
    14    21    22   ar
    15    13     1    1
    16     1     2    1
    17     2     3   ar
    18     3     4    1
    19     3     5   ar
    20     5     6   ar
    21     6     7   ar
    22     7     8   ar
    23     8     9    1
    24     9    10    2
    25     9    11   am
    26    11    28    1
    27    28    29    1
    28    29    30    1
    29    30    31   ar
    30    31    32   ar
    31    32    33   ar
    32    33    34   ar
    33    34    35   ar
    34    22    17   ar
    35    11     1    1
    36    35    30   ar
    37     8     2   ar
    38    14    15    1
@<TRIPOS>MOLECULE
*****
 35 38 0 0 0
SMALL
GASTEIGER

@<TRIPOS>ATOM
      1 C         141.3956  140.5182  166.6890 C.3     1  UNL1        0.1773
      2 C         141.2418  141.2716  167.9769 C.ar    1  UNL1        0.0364
      3 C         142.0853  142.3263  168.6297 C.ar    1  UNL1        0.1383
      4 F         143.3441  142.7981  167.9642 F       1  UNL1       -0.2044
      5 C         141.6700  142.9092  169.9479 C.ar    1  UNL1        0.0294
      6 C         140.4113  142.4374  170.6134 C.ar    1  UNL1        0.0024
      7 C         139.5677  141.3827  169.9606 C.ar    1  UNL1        0.0044
      8 C         139.9830  140.7998  168.6424 C.ar    1  UNL1        0.0538
      9 C         139.3589  139.7548  167.7658 C.2     1  UNL1        0.2494
     10 O         138.0853  139.0140  168.0471 O.2     1  UNL1       -0.2699
     11 N         140.2320  139.5807  166.5585 N.am    1  UNL1       -0.2657
     12 O         142.7216  141.9848  165.0036 O.2     1  UNL1       -0.2729
     13 C         142.5164  140.6747  165.7045 C.2     1  UNL1        0.2452
     14 N         143.4322  139.5209  165.4208 N.am    1  UNL1       -0.2988
     15 H         143.2975  138.6610  165.8808 H       1  UNL1        0.1498
     16 C         144.5530  139.6775  164.4362 C.3     1  UNL1        0.1164
     17 C         144.2864  139.5330  162.9672 C.ar    1  UNL1       -0.0024
     18 C         143.9227  138.1932  162.3991 C.ar    1  UNL1        0.0005
     19 C         143.6562  138.0489  160.9301 C.ar    1  UNL1        0.0369
     20 C         143.7531  139.2442  160.0291 C.ar    1  UNL1        0.1468
     21 C         144.1167  140.5840  160.5972 C.ar    1  UNL1        0.0369
     22 C         144.3834  140.7284  162.0663 C.ar    1  UNL1        0.0005
     23 O         143.4865  139.0998  158.5601 O.3     1  UNL1       -0.4045
     24 C         142.2135  138.4623  158.0880 C.3     1  UNL1        0.5753
     25 F         140.9404  137.8248  157.6158 F       1  UNL1       -0.1328
     26 F         142.9346  137.1602  157.9017 F       1  UNL1       -0.1328
     27 F         141.4924  139.7643  158.2742 F       1  UNL1       -0.1328
     28 C         139.9847  138.6353  165.4206 C.3     1  UNL1        0.1007
     29 C         138.7136  138.7295  164.6298 C.3     1  UNL1        0.0673
     30 C         138.7671  138.8537  163.1359 C.ar    1  UNL1        0.0607
     31 C         139.8238  138.1244  162.3601 C.ar    1  UNL1        0.0148
     32 C         139.8773  138.2486  160.8662 C.ar    1  UNL1        0.0028
     33 C         138.8742  139.1019  160.1481 C.ar    1  UNL1        0.0207
     34 C         137.8176  139.8311  160.9239 C.ar    1  UNL1        0.0984
     35 N         137.7641  139.7070  162.4178 N.ar    1  UNL1       -0.2481
@<TRIPOS>BOND
     1    12    13    2
     2    13    14   am
     3    14    16    1
     4    16    17    1
     5    17    18   ar
     6    18    19   ar
     7    19    20   ar
     8    20    23    1
     9    23    24    1
    10    24    25    1
    11    24    26    1
    12    24    27    1
    13    20    21   ar
    14    21    22   ar
    15    13     1    1
    16     1     2    1
    17     2     3   ar
    18     3     4    1
    19     3     5   ar
    20     5     6   ar
    21     6     7   ar
    22     7     8   ar
    23     8     9    1
    24     9    10    2
    25     9    11   am
    26    11    28    1
    27    28    29    1
    28    29    30    1
    29    30    31   ar
    30    31    32   ar
    31    32    33   ar
    32    33    34   ar
    33    34    35   ar
    34    22    17   ar
    35    11     1    1
    36    35    30   ar
    37     8     2   ar
    38    14    15    1
@<TRIPOS>MOLECULE
*****
 35 38 0 0 0
SMALL
GASTEIGER

@<TRIPOS>ATOM
      1 C         140.6649  140.7598  166.4383 C.3     1  UNL1        0.1773
      2 C         140.5666  140.8434  167.9327 C.ar    1  UNL1        0.0364
      3 C         139.5666  140.2920  168.9053 C.ar    1  UNL1        0.1383
      4 F         138.4012  139.4889  168.4084 F       1  UNL1       -0.2044
      5 C         139.7320  140.5437  170.3747 C.ar    1  UNL1        0.0294
      6 C         140.8974  141.3467  170.8716 C.ar    1  UNL1        0.0024
      7 C         141.8974  141.8981  169.8991 C.ar    1  UNL1        0.0044
      8 C         141.7320  141.6465  168.4296 C.ar    1  UNL1        0.0538
      9 C         142.5505  142.0592  167.2423 C.2     1  UNL1        0.2494
     10 O         143.8078  142.8764  167.2792 O.2     1  UNL1       -0.2699
     11 N         141.8909  141.5112  166.0115 N.am    1  UNL1       -0.2657
     12 O         138.3587  140.6464  165.2471 O.2     1  UNL1       -0.2729
     13 C         139.7054  140.0495  165.5300 C.2     1  UNL1        0.2452
     14 N         140.0927  138.7421  164.9047 N.am    1  UNL1       -0.2988
     15 H         140.9766  138.3503  165.0903 H       1  UNL1        0.1498
     16 C         139.1332  138.0318  163.9964 C.3     1  UNL1        0.1164
     17 C         138.9638  138.4903  162.5783 C.ar    1  UNL1       -0.0024
     18 C         137.7421  139.2646  162.1812 C.ar    1  UNL1        0.0005
     19 C         137.5728  139.7230  160.7630 C.ar    1  UNL1        0.0369
     20 C         138.6252  139.4071  159.7419 C.ar    1  UNL1        0.1468
     21 C         139.8470  138.6328  160.1390 C.ar    1  UNL1        0.0369
     22 C         140.0163  138.1743  161.5573 C.ar    1  UNL1        0.0005
     23 O         138.4559  139.8655  158.3238 O.3     1  UNL1       -0.4045
     24 C         138.0277  141.2742  158.0370 C.3     1  UNL1        0.5753
     25 F         137.5996  142.6829  157.7501 F       1  UNL1       -0.1328
     26 F         139.2474  141.7886  158.7426 F       1  UNL1       -0.1328
     27 F         136.8081  140.7599  157.3314 F       1  UNL1       -0.1328
     28 C         142.3728  141.6843  164.6016 C.3     1  UNL1        0.1007
     29 C         141.9736  142.8982  163.8163 C.3     1  UNL1        0.0673
     30 C         140.5231  143.2474  163.6608 C.ar    1  UNL1        0.0607
     31 C         139.7414  142.7055  162.5009 C.ar    1  UNL1        0.0148
     32 C         138.2909  143.0546  162.3454 C.ar    1  UNL1        0.0028
     33 C         137.6222  143.9457  163.3498 C.ar    1  UNL1        0.0207
     34 C         138.4039  144.4875  164.5097 C.ar    1  UNL1        0.0984
     35 N         139.8543  144.1384  164.6652 N.ar    1  UNL1       -0.2481
@<TRIPOS>BOND
     1    12    13    2
     2    13    14   am
     3    14    16    1
     4    16    17    1
     5    17    18   ar
     6    18    19   ar
     7    19    20   ar
     8    20    23    1
     9    23    24    1
    10    24    25    1
    11    24    26    1
    12    24    27    1
    13    20    21   ar
    14    21    22   ar
    15    13     1    1
    16     1     2    1
    17     2     3   ar
    18     3     4    1
    19     3     5   ar
    20     5     6   ar
    21     6     7   ar
    22     7     8   ar
    23     8     9    1
    24     9    10    2
    25     9    11   am
    26    11    28    1
    27    28    29    1
    28    29    30    1
    29    30    31   ar
    30    31    32   ar
    31    32    33   ar
    32    33    34   ar
    33    34    35   ar
    34    22    17   ar
    35    11     1    1
    36    35    30   ar
    37     8     2   ar
    38    14    15    1
@<TRIPOS>MOLECULE
*****
 35 38 0 0 0
SMALL
GASTEIGER

@<TRIPOS>ATOM
      1 C         140.8141  140.9643  166.6514 C.3     1  UNL1        0.1773
      2 C         141.0296  141.1009  168.1296 C.ar    1  UNL1        0.0364
      3 C         142.0593  141.8424  168.9294 C.ar    1  UNL1        0.1383
      4 F         143.1261  142.6321  168.2306 F       1  UNL1       -0.2044
      5 C         142.0223  141.7941  170.4282 C.ar    1  UNL1        0.0294
      6 C         140.9556  141.0044  171.1270 C.ar    1  UNL1        0.0024
      7 C         139.9259  140.2629  170.3272 C.ar    1  UNL1        0.0044
      8 C         139.9629  140.3112  168.8284 C.ar    1  UNL1        0.0538
      9 C         139.0882  139.6865  167.7822 C.2     1  UNL1        0.2494
     10 O         137.8965  138.8117  168.0368 O.2     1  UNL1       -0.2699
     11 N         139.6142  140.0901  166.4367 N.am    1  UNL1       -0.2657
     12 O         142.4906  140.7299  164.6806 O.2     1  UNL1       -0.2729
     13 C         141.6516  141.5917  165.5767 C.2     1  UNL1        0.2452
     14 N         141.6499  143.0811  165.3981 N.am    1  UNL1       -0.2988
     15 H         141.0992  143.6468  165.9862 H       1  UNL1        0.1498
     16 C         142.4873  143.7085  164.3233 C.3     1  UNL1        0.1164
     17 C         141.8401  144.2180  163.0698 C.ar    1  UNL1       -0.0024
     18 C         140.6612  145.1415  163.1563 C.ar    1  UNL1        0.0005
     19 C         140.0140  145.6509  161.9027 C.ar    1  UNL1        0.0369
     20 C         140.5456  145.2369  160.5625 C.ar    1  UNL1        0.1468
     21 C         141.7244  144.3135  160.4759 C.ar    1  UNL1        0.0369
     22 C         142.3717  143.8040  161.7296 C.ar    1  UNL1        0.0005
     23 O         139.8983  145.7464  159.3089 O.3     1  UNL1       -0.4045
     24 C         140.2672  145.1552  157.9807 C.3     1  UNL1        0.5753
     25 F         140.6361  144.5639  156.6524 F       1  UNL1       -0.1328
     26 F         141.2062  146.2983  157.7326 F       1  UNL1       -0.1328
     27 F         139.3282  144.0121  158.2287 F       1  UNL1       -0.1328
     28 C         139.0411  139.6899  165.1096 C.3     1  UNL1        0.1007
     29 C         138.0351  140.5712  164.4306 C.3     1  UNL1        0.0673
     30 C         138.0951  140.7719  162.9453 C.ar    1  UNL1        0.0607
     31 C         138.5253  142.0948  162.3840 C.ar    1  UNL1        0.0148
     32 C         138.5854  142.2955  160.8987 C.ar    1  UNL1        0.0028
     33 C         138.2152  141.1733  159.9747 C.ar    1  UNL1        0.0207
     34 C         137.7850  139.8505  160.5360 C.ar    1  UNL1        0.0984
     35 N         137.7249  139.6498  162.0213 N.ar    1  UNL1       -0.2481
@<TRIPOS>BOND
     1    12    13    2
     2    13    14   am
     3    14    16    1
     4    16    17    1
     5    17    18   ar
     6    18    19   ar
     7    19    20   ar
     8    20    23    1
     9    23    24    1
    10    24    25    1
    11    24    26    1
    12    24    27    1
    13    20    21   ar
    14    21    22   ar
    15    13     1    1
    16     1     2    1
    17     2     3   ar
    18     3     4    1
    19     3     5   ar
    20     5     6   ar
    21     6     7   ar
    22     7     8   ar
    23     8     9    1
    24     9    10    2
    25     9    11   am
    26    11    28    1
    27    28    29    1
    28    29    30    1
    29    30    31   ar
    30    31    32   ar
    31    32    33   ar
    32    33    34   ar
    33    34    35   ar
    34    22    17   ar
    35    11     1    1
    36    35    30   ar
    37     8     2   ar
    38    14    15    1
@<TRIPOS>MOLECULE
*****
 35 38 0 0 0
SMALL
GASTEIGER

@<TRIPOS>ATOM
      1 C         139.0031  142.3403  162.4133 C.3     1  UNL1        0.1773
      2 C         138.7198  141.8948  161.0093 C.ar    1  UNL1        0.0364
      3 C         138.2052  140.6010  160.4514 C.ar    1  UNL1        0.1383
      4 F         137.8767  139.4645  161.3735 F       1  UNL1       -0.2044
      5 C         138.0191  140.4438  158.9713 C.ar    1  UNL1        0.0294
      6 C         138.3476  141.5804  158.0492 C.ar    1  UNL1        0.0024
      7 C         138.8622  142.8742  158.6071 C.ar    1  UNL1        0.0044
      8 C         139.0483  143.0314  160.0871 C.ar    1  UNL1        0.0538
      9 C         139.5346  144.1793  160.9213 C.2     1  UNL1        0.2494
     10 O         139.9720  145.5191  160.4079 O.2     1  UNL1       -0.2699
     11 N         139.5066  143.7522  162.3589 N.am    1  UNL1       -0.2657
     12 O         137.8227  141.9453  164.6938 O.2     1  UNL1       -0.2729
     13 C         138.8157  141.5183  163.6539 C.2     1  UNL1        0.2452
     14 N         139.6214  140.2690  163.8546 N.am    1  UNL1       -0.2988
     15 H         140.2732  139.9886  163.1721 H       1  UNL1        0.1498
     16 C         139.4340  139.4469  165.0952 C.3     1  UNL1        0.1164
     17 C         140.1805  139.7986  166.3478 C.ar    1  UNL1       -0.0024
     18 C         141.6477  140.1039  166.2858 C.ar    1  UNL1        0.0005
     19 C         142.3942  140.4557  167.5384 C.ar    1  UNL1        0.0369
     20 C         141.6734  140.5021  168.8531 C.ar    1  UNL1        0.1468
     21 C         140.2061  140.1968  168.9151 C.ar    1  UNL1        0.0369
     22 C         139.4596  139.8450  167.6624 C.ar    1  UNL1        0.0005
     23 O         142.4199  140.8538  170.1057 O.3     1  UNL1       -0.4045
     24 C         142.7545  142.2856  170.4024 C.3     1  UNL1        0.5753
     25 F         143.0890  143.7174  170.6992 F       1  UNL1       -0.1328
     26 F         141.3748  142.4939  170.9528 F       1  UNL1       -0.1328
     27 F         144.1342  142.0773  169.8520 F       1  UNL1       -0.1328
     28 C         139.9112  144.5900  163.5356 C.3     1  UNL1        0.1007
     29 C         141.2902  145.1765  163.6000 C.3     1  UNL1        0.0673
     30 C         142.4906  144.2874  163.4630 C.ar    1  UNL1        0.0607
     31 C         142.8966  143.3953  164.5985 C.ar    1  UNL1        0.0148
     32 C         144.0969  142.5062  164.4616 C.ar    1  UNL1        0.0028
     33 C         144.8912  142.5093  163.1891 C.ar    1  UNL1        0.0207
     34 C         144.4852  143.4014  162.0537 C.ar    1  UNL1        0.0984
     35 N         143.2849  144.2905  162.1906 N.ar    1  UNL1       -0.2481
@<TRIPOS>BOND
     1    12    13    2
     2    13    14   am
     3    14    16    1
     4    16    17    1
     5    17    18   ar
     6    18    19   ar
     7    19    20   ar
     8    20    23    1
     9    23    24    1
    10    24    25    1
    11    24    26    1
    12    24    27    1
    13    20    21   ar
    14    21    22   ar
    15    13     1    1
    16     1     2    1
    17     2     3   ar
    18     3     4    1
    19     3     5   ar
    20     5     6   ar
    21     6     7   ar
    22     7     8   ar
    23     8     9    1
    24     9    10    2
    25     9    11   am
    26    11    28    1
    27    28    29    1
    28    29    30    1
    29    30    31   ar
    30    31    32   ar
    31    32    33   ar
    32    33    34   ar
    33    34    35   ar
    34    22    17   ar
    35    11     1    1
    36    35    30   ar
    37     8     2   ar
    38    14    15    1
@<TRIPOS>MOLECULE
*****
 35 38 0 0 0
SMALL
GASTEIGER

@<TRIPOS>ATOM
      1 C         142.1179  144.1875  159.5003 C.3     1  UNL1        0.1773
      2 C         141.6295  144.7878  158.2153 C.ar    1  UNL1        0.0364
      3 C         140.5160  145.7468  157.9149 C.ar    1  UNL1        0.1383
      4 F         139.6599  146.2745  159.0278 F       1  UNL1       -0.2044
      5 C         140.2585  146.1780  156.5015 C.ar    1  UNL1        0.0294
      6 C         141.1146  145.6503  155.3885 C.ar    1  UNL1        0.0024
      7 C         142.2281  144.6913  155.6890 C.ar    1  UNL1        0.0044
      8 C         142.4856  144.2601  157.1023 C.ar    1  UNL1        0.0538
      9 C         143.5030  143.3336  157.6995 C.2     1  UNL1        0.2494
     10 O         144.5618  142.5837  156.9468 O.2     1  UNL1       -0.2699
     11 N         143.2758  143.2888  159.1815 N.am    1  UNL1       -0.2657
     12 O         140.1318  144.0541  161.1699 O.2     1  UNL1       -0.2729
     13 C         141.5483  144.4414  160.8645 C.2     1  UNL1        0.2452
     14 N         142.3954  145.0826  161.9235 N.am    1  UNL1       -0.2988
     15 H         143.3252  145.3368  161.7231 H       1  UNL1        0.1498
     16 C         141.8258  145.3365  163.2877 C.3     1  UNL1        0.1164
     17 C         141.6513  144.2000  164.2509 C.ar    1  UNL1       -0.0024
     18 C         142.7927  143.2658  164.5235 C.ar    1  UNL1        0.0005
     19 C         142.6181  142.1292  165.4867 C.ar    1  UNL1        0.0369
     20 C         141.3020  141.9268  166.1773 C.ar    1  UNL1        0.1468
     21 C         140.1605  142.8610  165.9047 C.ar    1  UNL1        0.0369
     22 C         140.3351  143.9976  164.9415 C.ar    1  UNL1        0.0005
     23 O         141.1274  140.7903  167.1405 O.3     1  UNL1       -0.4045
     24 C         142.1925  139.7413  167.2639 C.3     1  UNL1        0.5753
     25 F         143.2576  138.6924  167.3873 F       1  UNL1       -0.1328
     26 F         142.8976  140.5780  168.2900 F       1  UNL1       -0.1328
     27 F         141.4875  138.9047  166.2378 F       1  UNL1       -0.1328
     28 C         144.0674  142.4861  160.1710 C.3     1  UNL1        0.1007
     29 C         143.5534  141.1578  160.6417 C.3     1  UNL1        0.0673
     30 C         144.0095  140.6006  161.9575 C.ar    1  UNL1        0.0607
     31 C         143.2865  139.4382  162.5708 C.ar    1  UNL1        0.0148
     32 C         143.7426  138.8810  163.8867 C.ar    1  UNL1        0.0028
     33 C         144.9217  139.4862  164.5892 C.ar    1  UNL1        0.0207
     34 C         145.6446  140.6486  163.9759 C.ar    1  UNL1        0.0984
     35 N         145.1885  141.2058  162.6601 N.ar    1  UNL1       -0.2481
@<TRIPOS>BOND
     1    12    13    2
     2    13    14   am
     3    14    16    1
     4    16    17    1
     5    17    18   ar
     6    18    19   ar
     7    19    20   ar
     8    20    23    1
     9    23    24    1
    10    24    25    1
    11    24    26    1
    12    24    27    1
    13    20    21   ar
    14    21    22   ar
    15    13     1    1
    16     1     2    1
    17     2     3   ar
    18     3     4    1
    19     3     5   ar
    20     5     6   ar
    21     6     7   ar
    22     7     8   ar
    23     8     9    1
    24     9    10    2
    25     9    11   am
    26    11    28    1
    27    28    29    1
    28    29    30    1
    29    30    31   ar
    30    31    32   ar
    31    32    33   ar
    32    33    34   ar
    33    34    35   ar
    34    22    17   ar
    35    11     1    1
    36    35    30   ar
    37     8     2   ar
    38    14    15    1
