@<TRIPOS>MOLECULE
*****
 46 52 0 0 0
SMALL
GASTEIGER

@<TRIPOS>ATOM
      1 C         140.8470  141.1290  161.0621 C.3     1  UNL1        0.0235
      2 C         140.2007  139.9869  160.3355 C.3     1  UNL1        0.0257
      3 C         140.9296  139.2997  159.2190 C.3     1  UNL1        0.0940
      4 N         142.3048  139.7545  158.8292 N.am    1  UNL1       -0.2761
      5 C         143.0337  139.0673  157.7128 C.2     1  UNL1        0.2490
      6 O         144.4089  139.5222  157.3229 O.2     1  UNL1       -0.2699
      7 C         142.9511  140.8966  159.5558 C.3     1  UNL1        0.0940
      8 C         142.2222  141.5839  160.6722 C.3     1  UNL1        0.0257
      9 C         141.0389  142.2482  162.0423 C.ar    1  UNL1       -0.0226
     10 C         140.9992  143.6720  161.5722 C.ar    1  UNL1       -0.0043
     11 C         141.1911  144.7912  162.5524 C.ar    1  UNL1       -0.0003
     12 C         141.4226  144.4863  164.0027 C.ar    1  UNL1       -0.0000
     13 C         141.4623  143.0624  164.4729 C.ar    1  UNL1       -0.0003
     14 C         141.2704  141.9434  163.4926 C.ar    1  UNL1       -0.0043
     15 C         142.3873  137.9252  156.9862 C.ar    1  UNL1        0.0537
     16 C         141.1367  138.1542  156.1903 C.ar    1  UNL1        0.0045
     17 C         140.4904  137.0120  155.4638 C.ar    1  UNL1        0.0003
     18 C         141.0948  135.6409  155.5332 C.ar    1  UNL1        0.0046
     19 C         142.3454  135.4119  156.3291 C.ar    1  UNL1        0.0555
     20 C         142.9917  136.5541  157.0556 C.ar    1  UNL1        0.0091
     21 C         142.9498  134.0409  156.3984 C.2     1  UNL1        0.2677
     22 O         142.0636  132.8307  156.4171 O.2     1  UNL1       -0.2681
     23 N         144.4402  133.8798  156.4490 N.am    1  UNL1       -0.1934
     24 O         145.0445  132.5087  156.5184 O.3     1  UNL1       -0.2949
     25 H         145.0219  134.6741  156.4367 H       1  UNL1        0.1825
     26 H         144.3382  131.8439  156.5221 H       1  UNL1        0.2414
     27 C         139.5385  141.0628  161.7923 C.3     1  UNL1        0.0215
     28 C         138.2671  141.4349  161.0886 C.3     1  UNL1        0.0723
     29 C         138.2343  141.3734  160.9479 C.3     1  UNL1        0.0893
     30 C         138.7236  142.6627  160.3576 C.3     1  UNL1        0.0386
     31 C         138.7186  142.8561  158.8702 C.3     1  UNL1        0.0594
     32 C         138.5384  142.6146  157.4007 C.3     1  UNL1        0.0174
     33 C         137.9706  141.2376  157.2236 C.3     1  UNL1        0.0174
     34 C         137.7998  140.6280  158.5834 C.3     1  UNL1        0.0594
     35 C         137.7401  140.2777  160.0507 C.3     1  UNL1        0.0386
     36 N         138.2622  141.6284  159.6012 N.3     1  UNL1       -0.2751
     37 C         137.7111  143.5770  162.8363 C.3     1  UNL1        0.0718
     38 C         137.9842  142.2420  163.4635 C.ar    1  UNL1        0.1207
     39 N         138.0874  141.6089  164.8194 N.ar    1  UNL1       -0.2309
     40 C         138.4064  140.1555  164.6293 C.ar    1  UNL1        0.0983
     41 C         138.6234  139.0393  165.6075 C.ar    1  UNL1        0.0206
     42 C         138.9343  137.6580  165.1123 C.ar    1  UNL1        0.0016
     43 C         139.0282  137.3929  163.6389 C.ar    1  UNL1        0.0016
     44 C         138.8111  138.5091  162.6607 C.ar    1  UNL1        0.0188
     45 C         138.5002  139.8904  163.1559 C.ar    1  UNL1        0.0785
     46 N         138.2392  141.1799  162.4354 N.ar    1  UNL1       -0.3167
@<TRIPOS>BOND
     1    37    38    1
     2    38    39   ar
     3    39    40   ar
     4    40    41   ar
     5    41    42   ar
     6    42    43   ar
     7    43    44   ar
     8    44    45   ar
     9    45    46   ar
    10    46    29    1
    11    29    30    1
    12    30    31    1
    13    31    32    1
    14    32    33    1
    15    33    34    1
    16    34    35    1
    17    34    36    1
    18    36    28    1
    19    28    27    1
    20    27     1    1
    21     1     9    1
    22     9    10   ar
    23    10    11   ar
    24    11    12   ar
    25    12    13   ar
    26    13    14   ar
    27     1     2    1
    28     2     3    1
    29     3     4    1
    30     4     5   am
    31     5     6    2
    32     5    15    1
    33    15    16   ar
    34    16    17   ar
    35    17    18   ar
    36    18    19   ar
    37    19    21    1
    38    21    22    2
    39    21    23   am
    40    23    24    1
    41    19    20   ar
    42     4     7    1
    43     7     8    1
    44    46    38   ar
    45    35    29    1
    46     8     1    1
    47    45    40   ar
    48    36    31    1
    49    14     9   ar
    50    20    15   ar
    51    23    25    1
    52    24    26    1
@<TRIPOS>MOLECULE
*****
 46 52 0 0 0
SMALL
GASTEIGER

@<TRIPOS>ATOM
      1 C         141.2011  140.2506  163.1289 C.3     1  UNL1        0.0235
      2 C         140.7292  140.6884  164.4838 C.3     1  UNL1        0.0257
      3 C         141.4798  140.2663  165.7120 C.3     1  UNL1        0.0940
      4 N         142.7024  139.4066  165.5853 N.am    1  UNL1       -0.2761
      5 C         143.4531  138.9845  166.8135 C.2     1  UNL1        0.2490
      6 O         144.6757  138.1247  166.6868 O.2     1  UNL1       -0.2699
      7 C         143.1743  138.9688  164.2304 C.3     1  UNL1        0.0940
      8 C         142.4238  139.3908  163.0023 C.3     1  UNL1        0.0257
      9 C         141.2550  140.0924  161.6382 C.ar    1  UNL1       -0.0226
     10 C         141.7199  141.2309  160.7794 C.ar    1  UNL1       -0.0043
     11 C         141.7738  141.0726  159.2887 C.ar    1  UNL1       -0.0003
     12 C         141.3627  139.7757  158.6569 C.ar    1  UNL1       -0.0000
     13 C         140.8978  138.6371  159.5158 C.ar    1  UNL1       -0.0003
     14 C         140.8440  138.7955  161.0064 C.ar    1  UNL1       -0.0043
     15 C         142.9811  139.4223  168.1683 C.ar    1  UNL1        0.0537
     16 C         142.8120  138.4138  169.2657 C.ar    1  UNL1        0.0045
     17 C         142.3400  138.8517  170.6205 C.ar    1  UNL1        0.0003
     18 C         142.0371  140.2981  170.8779 C.ar    1  UNL1        0.0046
     19 C         142.2062  141.3066  169.7805 C.ar    1  UNL1        0.0555
     20 C         142.6782  140.8687  168.4257 C.ar    1  UNL1        0.0091
     21 C         141.9033  142.7529  170.0379 C.2     1  UNL1        0.2677
     22 O         142.9795  143.6655  170.5470 O.2     1  UNL1       -0.2681
     23 N         140.5243  143.2868  169.7863 N.am    1  UNL1       -0.1934
     24 O         140.2215  144.7332  170.0437 O.3     1  UNL1       -0.2949
     25 H         139.8180  142.6879  169.4521 H       1  UNL1        0.1825
     26 H         141.0204  145.1782  170.3670 H       1  UNL1        0.2414
     27 C         139.9973  141.0554  162.7379 C.3     1  UNL1        0.0215
     28 C         138.6273  140.6045  163.1502 C.3     1  UNL1        0.0723
     29 C         138.5923  140.5683  163.2989 C.3     1  UNL1        0.0893
     30 C         138.8386  139.1367  162.9245 C.3     1  UNL1        0.0386
     31 C         138.6826  138.0552  163.9521 C.3     1  UNL1        0.0594
     32 C         138.4186  137.3444  165.2464 C.3     1  UNL1        0.0174
     33 C         138.0441  138.3730  166.2720 C.3     1  UNL1        0.0174
     34 C         138.0767  139.7194  165.6116 C.3     1  UNL1        0.0594
     35 C         138.1900  140.9181  164.7009 C.3     1  UNL1        0.0386
     36 N         138.4714  139.5230  164.1778 N.3     1  UNL1       -0.2751
     37 C         137.6707  140.2568  160.5151 C.3     1  UNL1        0.0718
     38 C         138.3095  141.5748  160.8388 C.ar    1  UNL1        0.1207
     39 N         138.6605  142.8748  160.1780 N.ar    1  UNL1       -0.2309
     40 C         139.3162  143.7532  161.2019 C.ar    1  UNL1        0.0983
     41 C         139.8709  145.1446  161.1234 C.ar    1  UNL1        0.0206
     42 C         140.4798  145.7789  162.3387 C.ar    1  UNL1        0.0016
     43 C         140.5341  145.0218  163.6324 C.ar    1  UNL1        0.0016
     44 C         139.9794  143.6303  163.7109 C.ar    1  UNL1        0.0188
     45 C         139.3705  142.9961  162.4957 C.ar    1  UNL1        0.0785
     46 N         138.7483  141.6498  162.2713 N.ar    1  UNL1       -0.3167
@<TRIPOS>BOND
     1    37    38    1
     2    38    39   ar
     3    39    40   ar
     4    40    41   ar
     5    41    42   ar
     6    42    43   ar
     7    43    44   ar
     8    44    45   ar
     9    45    46   ar
    10    46    29    1
    11    29    30    1
    12    30    31    1
    13    31    32    1
    14    32    33    1
    15    33    34    1
    16    34    35    1
    17    34    36    1
    18    36    28    1
    19    28    27    1
    20    27     1    1
    21     1     9    1
    22     9    10   ar
    23    10    11   ar
    24    11    12   ar
    25    12    13   ar
    26    13    14   ar
    27     1     2    1
    28     2     3    1
    29     3     4    1
    30     4     5   am
    31     5     6    2
    32     5    15    1
    33    15    16   ar
    34    16    17   ar
    35    17    18   ar
    36    18    19   ar
    37    19    21    1
    38    21    22    2
    39    21    23   am
    40    23    24    1
    41    19    20   ar
    42     4     7    1
    43     7     8    1
    44    46    38   ar
    45    35    29    1
    46     8     1    1
    47    45    40   ar
    48    36    31    1
    49    14     9   ar
    50    20    15   ar
    51    23    25    1
    52    24    26    1
@<TRIPOS>MOLECULE
*****
 46 52 0 0 0
SMALL
GASTEIGER

@<TRIPOS>ATOM
      1 C         140.1417  141.2085  163.3127 C.3     1  UNL1        0.0235
      2 C         140.7827  141.8678  164.4978 C.3     1  UNL1        0.0257
      3 C         140.5145  141.3505  165.8800 C.3     1  UNL1        0.0940
      4 N         139.6052  140.1739  166.0771 N.am    1  UNL1       -0.2761
      5 C         139.3369  139.6566  167.4593 C.2     1  UNL1        0.2490
      6 O         138.4276  138.4800  167.6564 O.2     1  UNL1       -0.2699
      7 C         138.9641  139.5146  164.8920 C.3     1  UNL1        0.0940
      8 C         139.2324  140.0319  163.5099 C.3     1  UNL1        0.0257
      9 C         139.7718  140.9234  161.8872 C.ar    1  UNL1       -0.0226
     10 C         140.8142  140.4365  160.9249 C.ar    1  UNL1       -0.0043
     11 C         140.4443  140.1514  159.4994 C.ar    1  UNL1       -0.0003
     12 C         139.0319  140.3533  159.0364 C.ar    1  UNL1       -0.0000
     13 C         137.9894  140.8403  159.9988 C.ar    1  UNL1       -0.0003
     14 C         138.3595  141.1254  161.4242 C.ar    1  UNL1       -0.0043
     15 C         139.9780  140.3159  168.6444 C.ar    1  UNL1        0.0537
     16 C         141.1212  139.6464  169.3478 C.ar    1  UNL1        0.0045
     17 C         141.7622  140.3058  170.5328 C.ar    1  UNL1        0.0003
     18 C         141.2600  141.6347  171.0144 C.ar    1  UNL1        0.0046
     19 C         140.1168  142.3042  170.3110 C.ar    1  UNL1        0.0555
     20 C         139.4758  141.6448  169.1259 C.ar    1  UNL1        0.0091
     21 C         139.6147  143.6330  170.7926 C.2     1  UNL1        0.2677
     22 O         140.2777  144.8972  170.3317 O.2     1  UNL1       -0.2681
     23 N         138.4496  143.6977  171.7351 N.am    1  UNL1       -0.1934
     24 O         137.9474  145.0266  172.2167 O.3     1  UNL1       -0.2949
     25 H         138.0145  142.8681  172.0376 H       1  UNL1        0.1825
     26 H         138.4827  145.7353  171.8265 H       1  UNL1        0.2414
     27 C         140.9225  142.2860  162.6206 C.3     1  UNL1        0.0215
     28 C         140.5306  143.7239  162.7915 C.3     1  UNL1        0.0723
     29 C         140.4839  143.7828  162.9293 C.3     1  UNL1        0.0893
     30 C         139.0776  143.5527  162.4607 C.3     1  UNL1        0.0386
     31 C         137.9230  143.9152  163.3470 C.3     1  UNL1        0.0594
     32 C         137.1206  144.4067  164.5152 C.3     1  UNL1        0.0174
     33 C         138.0778  144.8816  165.5679 C.3     1  UNL1        0.0174
     34 C         139.4717  144.6837  165.0504 C.3     1  UNL1        0.0594
     35 C         140.7354  144.3753  164.2841 C.3     1  UNL1        0.0386
     36 N         139.3761  144.0863  163.6777 N.3     1  UNL1       -0.2751
     37 C         140.3734  144.0415  159.9940 C.3     1  UNL1        0.0718
     38 C         141.6669  143.5208  160.5467 C.ar    1  UNL1        0.1207
     39 N         143.0134  143.0563  160.0765 N.ar    1  UNL1       -0.2309
     40 C         143.8173  142.6688  161.2822 C.ar    1  UNL1        0.0983
     41 C         145.2131  142.1401  161.4304 C.ar    1  UNL1        0.0206
     42 C         145.7593  141.8364  162.7940 C.ar    1  UNL1        0.0016
     43 C         144.9095  142.0614  164.0094 C.ar    1  UNL1        0.0016
     44 C         143.5136  142.5901  163.8612 C.ar    1  UNL1        0.0188
     45 C         142.9675  142.8938  162.4976 C.ar    1  UNL1        0.0785
     46 N         141.6386  143.4203  162.0431 N.ar    1  UNL1       -0.3167
@<TRIPOS>BOND
     1    37    38    1
     2    38    39   ar
     3    39    40   ar
     4    40    41   ar
     5    41    42   ar
     6    42    43   ar
     7    43    44   ar
     8    44    45   ar
     9    45    46   ar
    10    46    29    1
    11    29    30    1
    12    30    31    1
    13    31    32    1
    14    32    33    1
    15    33    34    1
    16    34    35    1
    17    34    36    1
    18    36    28    1
    19    28    27    1
    20    27     1    1
    21     1     9    1
    22     9    10   ar
    23    10    11   ar
    24    11    12   ar
    25    12    13   ar
    26    13    14   ar
    27     1     2    1
    28     2     3    1
    29     3     4    1
    30     4     5   am
    31     5     6    2
    32     5    15    1
    33    15    16   ar
    34    16    17   ar
    35    17    18   ar
    36    18    19   ar
    37    19    21    1
    38    21    22    2
    39    21    23   am
    40    23    24    1
    41    19    20   ar
    42     4     7    1
    43     7     8    1
    44    46    38   ar
    45    35    29    1
    46     8     1    1
    47    45    40   ar
    48    36    31    1
    49    14     9   ar
    50    20    15   ar
    51    23    25    1
    52    24    26    1
@<TRIPOS>MOLECULE
*****
 46 52 0 0 0
SMALL
GASTEIGER

@<TRIPOS>ATOM
      1 C         140.6717  141.8820  161.8514 C.3     1  UNL1        0.0235
      2 C         141.1266  142.3843  163.1895 C.3     1  UNL1        0.0257
      3 C         141.0597  141.4871  164.3898 C.3     1  UNL1        0.0940
      4 N         140.5379  140.0876  164.2519 N.am    1  UNL1       -0.2761
      5 C         140.4710  139.1904  165.4521 C.2     1  UNL1        0.2490
      6 O         139.9492  137.7909  165.3142 O.2     1  UNL1       -0.2699
      7 C         140.0830  139.5853  162.9137 C.3     1  UNL1        0.0940
      8 C         140.1499  140.4824  161.7135 C.3     1  UNL1        0.0257
      9 C         140.3604  141.8634  160.3840 C.ar    1  UNL1       -0.0226
     10 C         141.2580  141.1244  159.4363 C.ar    1  UNL1       -0.0043
     11 C         140.9467  141.1058  157.9690 C.ar    1  UNL1       -0.0003
     12 C         139.7379  141.8262  157.4496 C.ar    1  UNL1       -0.0000
     13 C         138.8404  142.5653  158.3974 C.ar    1  UNL1       -0.0003
     14 C         139.1517  142.5838  159.8647 C.ar    1  UNL1       -0.0043
     15 C         140.9259  139.6928  166.7903 C.ar    1  UNL1        0.0537
     16 C         142.3733  139.6017  167.1732 C.ar    1  UNL1        0.0045
     17 C         142.8281  140.1042  168.5114 C.ar    1  UNL1        0.0003
     18 C         141.8355  140.6977  169.4666 C.ar    1  UNL1        0.0046
     19 C         140.3881  140.7888  169.0837 C.ar    1  UNL1        0.0555
     20 C         139.9333  140.2864  167.7455 C.ar    1  UNL1        0.0091
     21 C         139.3955  141.3823  170.0389 C.2     1  UNL1        0.2677
     22 O         138.1769  140.6024  170.4349 O.2     1  UNL1       -0.2681
     23 N         139.6215  142.7557  170.5982 N.am    1  UNL1       -0.1934
     24 O         138.6289  143.3492  171.5534 O.3     1  UNL1       -0.2949
     25 H         140.4213  143.2675  170.3383 H       1  UNL1        0.1825
     26 H         137.9065  142.7192  171.7019 H       1  UNL1        0.2414
     27 C         141.0854  143.2750  161.4797 C.3     1  UNL1        0.0215
     28 C         142.5312  143.6698  161.5418 C.3     1  UNL1        0.0723
     29 C         142.6165  143.6475  161.6716 C.3     1  UNL1        0.0893
     30 C         143.1247  142.3924  161.0262 C.3     1  UNL1        0.0386
     31 C         144.1094  141.5225  161.7500 C.3     1  UNL1        0.0594
     32 C         145.0402  140.9879  162.7977 C.3     1  UNL1        0.0174
     33 C         145.0219  141.9350  163.9608 C.3     1  UNL1        0.0174
     34 C         144.0798  143.0549  163.6320 C.3     1  UNL1        0.0594
     35 C         143.0930  144.0327  163.0407 C.3     1  UNL1        0.0386
     36 N         143.5158  142.8000  162.2655 N.3     1  UNL1       -0.2751
     37 C         140.4917  145.1407  163.0684 C.3     1  UNL1        0.0718
     38 C         140.5242  145.3084  161.5782 C.ar    1  UNL1        0.1207
     39 N         139.7898  146.0288  160.4865 N.ar    1  UNL1       -0.2309
     40 C         140.4436  145.6830  159.1815 C.ar    1  UNL1        0.0983
     41 C         140.1493  146.0980  157.7705 C.ar    1  UNL1        0.0206
     42 C         140.9935  145.5788  156.6445 C.ar    1  UNL1        0.0016
     43 C         142.1320  144.6447  156.9296 C.ar    1  UNL1        0.0016
     44 C         142.4263  144.2297  158.3407 C.ar    1  UNL1        0.0188
     45 C         141.5821  144.7488  159.4666 C.ar    1  UNL1        0.0785
     46 N         141.6319  144.5174  160.9478 N.ar    1  UNL1       -0.3167
@<TRIPOS>BOND
     1    37    38    1
     2    38    39   ar
     3    39    40   ar
     4    40    41   ar
     5    41    42   ar
     6    42    43   ar
     7    43    44   ar
     8    44    45   ar
     9    45    46   ar
    10    46    29    1
    11    29    30    1
    12    30    31    1
    13    31    32    1
    14    32    33    1
    15    33    34    1
    16    34    35    1
    17    34    36    1
    18    36    28    1
    19    28    27    1
    20    27     1    1
    21     1     9    1
    22     9    10   ar
    23    10    11   ar
    24    11    12   ar
    25    12    13   ar
    26    13    14   ar
    27     1     2    1
    28     2     3    1
    29     3     4    1
    30     4     5   am
    31     5     6    2
    32     5    15    1
    33    15    16   ar
    34    16    17   ar
    35    17    18   ar
    36    18    19   ar
    37    19    21    1
    38    21    22    2
    39    21    23   am
    40    23    24    1
    41    19    20   ar
    42     4     7    1
    43     7     8    1
    44    46    38   ar
    45    35    29    1
    46     8     1    1
    47    45    40   ar
    48    36    31    1
    49    14     9   ar
    50    20    15   ar
    51    23    25    1
    52    24    26    1
@<TRIPOS>MOLECULE
*****
 46 52 0 0 0
SMALL
GASTEIGER

@<TRIPOS>ATOM
      1 C         140.8147  142.0787  162.3269 C.3     1  UNL1        0.0235
      2 C         141.3502  142.9113  163.4539 C.3     1  UNL1        0.0257
      3 C         141.3382  142.3744  164.8544 C.3     1  UNL1        0.0940
      4 N         140.7908  141.0049  165.1281 N.am    1  UNL1       -0.2761
      5 C         140.7789  140.4680  166.5286 C.2     1  UNL1        0.2490
      6 O         140.2315  139.0985  166.8023 O.2     1  UNL1       -0.2699
      7 C         140.2554  140.1723  164.0011 C.3     1  UNL1        0.0940
      8 C         140.2673  140.7091  162.6005 C.3     1  UNL1        0.0257
      9 C         140.4220  141.6727  160.9372 C.ar    1  UNL1       -0.0226
     10 C         139.2076  142.2748  160.2950 C.ar    1  UNL1       -0.0043
     11 C         138.8148  141.8688  158.9053 C.ar    1  UNL1       -0.0003
     12 C         139.6366  140.8606  158.1581 C.ar    1  UNL1       -0.0000
     13 C         140.8511  140.2585  158.8004 C.ar    1  UNL1       -0.0003
     14 C         141.2437  140.6646  160.1900 C.ar    1  UNL1       -0.0043
     15 C         141.3143  141.3007  167.6556 C.ar    1  UNL1        0.0537
     16 C         142.7839  141.2999  167.9562 C.ar    1  UNL1        0.0045
     17 C         143.3193  142.1326  169.0832 C.ar    1  UNL1        0.0003
     18 C         142.3851  142.9660  169.9094 C.ar    1  UNL1        0.0046
     19 C         140.9156  142.9668  169.6088 C.ar    1  UNL1        0.0555
     20 C         140.3802  142.1341  168.4818 C.ar    1  UNL1        0.0091
     21 C         139.9815  143.8002  170.4350 C.2     1  UNL1        0.2677
     22 O         139.0226  143.1386  171.3800 O.2     1  UNL1       -0.2681
     23 N         140.0062  145.2953  170.3164 N.am    1  UNL1       -0.1934
     24 O         139.0720  146.1288  171.1427 O.3     1  UNL1       -0.2949
     25 H         140.6355  145.7296  169.6962 H       1  UNL1        0.1825
     26 H         138.5245  145.5493  171.6952 H       1  UNL1        0.2414
     27 C         141.2257  143.3071  161.5707 C.3     1  UNL1        0.0215
     28 C         142.6779  143.6636  161.4513 C.3     1  UNL1        0.0723
     29 C         142.7716  143.6646  161.5773 C.3     1  UNL1        0.0893
     30 C         143.2232  142.2984  161.1532 C.3     1  UNL1        0.0386
     31 C         144.2459  141.5608  161.9657 C.3     1  UNL1        0.0594
     32 C         145.2398  141.2151  163.0346 C.3     1  UNL1        0.0174
     33 C         145.3087  142.3666  163.9934 C.3     1  UNL1        0.0174
     34 C         144.3574  143.4240  163.5170 C.3     1  UNL1        0.0594
     35 C         143.3426  144.2929  162.8138 C.3     1  UNL1        0.0386
     36 N         143.7005  142.9260  162.2637 N.3     1  UNL1       -0.2751
     37 C         140.8371  145.5361  162.7818 C.3     1  UNL1        0.0718
     38 C         140.7315  145.3686  161.2950 C.ar    1  UNL1        0.1207
     39 N         139.9180  145.8666  160.1373 N.ar    1  UNL1       -0.2309
     40 C         140.4326  145.2080  158.8917 C.ar    1  UNL1        0.0983
     41 C         140.0169  145.3155  157.4545 C.ar    1  UNL1        0.0206
     42 C         140.7329  144.5179  156.4051 C.ar    1  UNL1        0.0016
     43 C         141.8645  143.6129  156.7930 C.ar    1  UNL1        0.0016
     44 C         142.2801  143.5054  158.2302 C.ar    1  UNL1        0.0188
     45 C         141.5642  144.3030  159.2796 C.ar    1  UNL1        0.0785
     46 N         141.7489  144.4022  160.7648 N.ar    1  UNL1       -0.3167
@<TRIPOS>BOND
     1    37    38    1
     2    38    39   ar
     3    39    40   ar
     4    40    41   ar
     5    41    42   ar
     6    42    43   ar
     7    43    44   ar
     8    44    45   ar
     9    45    46   ar
    10    46    29    1
    11    29    30    1
    12    30    31    1
    13    31    32    1
    14    32    33    1
    15    33    34    1
    16    34    35    1
    17    34    36    1
    18    36    28    1
    19    28    27    1
    20    27     1    1
    21     1     9    1
    22     9    10   ar
    23    10    11   ar
    24    11    12   ar
    25    12    13   ar
    26    13    14   ar
    27     1     2    1
    28     2     3    1
    29     3     4    1
    30     4     5   am
    31     5     6    2
    32     5    15    1
    33    15    16   ar
    34    16    17   ar
    35    17    18   ar
    36    18    19   ar
    37    19    21    1
    38    21    22    2
    39    21    23   am
    40    23    24    1
    41    19    20   ar
    42     4     7    1
    43     7     8    1
    44    46    38   ar
    45    35    29    1
    46     8     1    1
    47    45    40   ar
    48    36    31    1
    49    14     9   ar
    50    20    15   ar
    51    23    25    1
    52    24    26    1
@<TRIPOS>MOLECULE
*****
 46 52 0 0 0
SMALL
GASTEIGER

@<TRIPOS>ATOM
      1 C         140.8440  141.1360  161.0301 C.3     1  UNL1        0.0235
      2 C         140.2127  139.9692  160.3301 C.3     1  UNL1        0.0257
      3 C         140.9467  139.2718  159.2234 C.3     1  UNL1        0.0940
      4 N         142.3120  139.7411  158.8166 N.am    1  UNL1       -0.2761
      5 C         143.0460  139.0436  157.7099 C.2     1  UNL1        0.2490
      6 O         144.4114  139.5130  157.3031 O.2     1  UNL1       -0.2699
      7 C         142.9434  140.9079  159.5166 C.3     1  UNL1        0.0940
      8 C         142.2095  141.6053  160.6233 C.3     1  UNL1        0.0257
      9 C         141.0229  142.2775  161.9867 C.ar    1  UNL1       -0.0226
     10 C         140.9673  143.6907  161.4869 C.ar    1  UNL1       -0.0043
     11 C         141.1461  144.8322  162.4435 C.ar    1  UNL1       -0.0003
     12 C         141.3805  144.5604  163.8999 C.ar    1  UNL1       -0.0000
     13 C         141.4361  143.1472  164.3998 C.ar    1  UNL1       -0.0003
     14 C         141.2573  142.0058  163.4431 C.ar    1  UNL1       -0.0043
     15 C         142.4146  137.8769  157.0100 C.ar    1  UNL1        0.0537
     16 C         143.0439  136.5182  157.0996 C.ar    1  UNL1        0.0045
     17 C         142.4124  135.3515  156.3997 C.ar    1  UNL1        0.0003
     18 C         141.1515  135.5434  155.6101 C.ar    1  UNL1        0.0046
     19 C         140.5222  136.9021  155.5204 C.ar    1  UNL1        0.0555
     20 C         141.1537  138.0688  156.2204 C.ar    1  UNL1        0.0091
     21 C         139.2614  137.0939  154.7309 C.2     1  UNL1        0.2677
     22 O         139.2427  136.7900  153.2620 O.2     1  UNL1       -0.2681
     23 N         138.0192  137.5897  155.4100 N.am    1  UNL1       -0.1934
     24 O         136.7584  137.7816  154.6203 O.3     1  UNL1       -0.2949
     25 H         138.0315  137.7892  156.3740 H       1  UNL1        0.1825
     26 H         136.9173  137.5414  153.6941 H       1  UNL1        0.2414
     27 C         139.5408  141.0631  161.7690 C.3     1  UNL1        0.0215
     28 C         138.2605  141.4077  161.0675 C.3     1  UNL1        0.0723
     29 C         138.2280  141.3449  160.9274 C.3     1  UNL1        0.0893
     30 C         138.6970  142.6375  160.3279 C.3     1  UNL1        0.0386
     31 C         138.6836  142.8224  158.8394 C.3     1  UNL1        0.0594
     32 C         138.5011  142.5700  157.3721 C.3     1  UNL1        0.0174
     33 C         137.9518  141.1843  157.2049 C.3     1  UNL1        0.0174
     34 C         137.7948  140.5802  158.5688 C.3     1  UNL1        0.0594
     35 C         137.7456  140.2373  160.0383 C.3     1  UNL1        0.0386
     36 N         138.2471  141.5926  159.5791 N.3     1  UNL1       -0.2751
     37 C         137.7021  143.5564  162.8058 C.3     1  UNL1        0.0718
     38 C         137.9856  142.2265  163.4391 C.ar    1  UNL1        0.1207
     39 N         138.0991  141.6018  164.7981 N.ar    1  UNL1       -0.2309
     40 C         138.4250  140.1491  164.6147 C.ar    1  UNL1        0.0983
     41 C         138.6530  139.0397  165.5982 C.ar    1  UNL1        0.0206
     42 C         138.9690  137.6573  165.1093 C.ar    1  UNL1        0.0016
     43 C         139.0569  137.3843  163.6370 C.ar    1  UNL1        0.0016
     44 C         138.8289  138.4937  162.6535 C.ar    1  UNL1        0.0188
     45 C         138.5129  139.8761  163.1424 C.ar    1  UNL1        0.0785
     46 N         138.2414  141.1600  162.4159 N.ar    1  UNL1       -0.3167
@<TRIPOS>BOND
     1    37    38    1
     2    38    39   ar
     3    39    40   ar
     4    40    41   ar
     5    41    42   ar
     6    42    43   ar
     7    43    44   ar
     8    44    45   ar
     9    45    46   ar
    10    46    29    1
    11    29    30    1
    12    30    31    1
    13    31    32    1
    14    32    33    1
    15    33    34    1
    16    34    35    1
    17    34    36    1
    18    36    28    1
    19    28    27    1
    20    27     1    1
    21     1     9    1
    22     9    10   ar
    23    10    11   ar
    24    11    12   ar
    25    12    13   ar
    26    13    14   ar
    27     1     2    1
    28     2     3    1
    29     3     4    1
    30     4     5   am
    31     5     6    2
    32     5    15    1
    33    15    16   ar
    34    16    17   ar
    35    17    18   ar
    36    18    19   ar
    37    19    21    1
    38    21    22    2
    39    21    23   am
    40    23    24    1
    41    19    20   ar
    42     4     7    1
    43     7     8    1
    44    46    38   ar
    45    35    29    1
    46     8     1    1
    47    45    40   ar
    48    36    31    1
    49    14     9   ar
    50    20    15   ar
    51    23    25    1
    52    24    26    1
@<TRIPOS>MOLECULE
*****
 46 52 0 0 0
SMALL
GASTEIGER

@<TRIPOS>ATOM
      1 C         140.1981  140.9408  162.1608 C.3     1  UNL1        0.0235
      2 C         141.0368  141.5133  163.2647 C.3     1  UNL1        0.0257
      3 C         140.8532  141.0313  164.6733 C.3     1  UNL1        0.0940
      4 N         139.8307  139.9769  164.9779 N.am    1  UNL1       -0.2761
      5 C         139.6471  139.4949  166.3864 C.2     1  UNL1        0.2490
      6 O         138.6246  138.4404  166.6910 O.2     1  UNL1       -0.2699
      7 C         138.9920  139.4044  163.8739 C.3     1  UNL1        0.0940
      8 C         139.1756  139.8863  162.4654 C.3     1  UNL1        0.0257
      9 C         139.6480  140.7062  160.7851 C.ar    1  UNL1       -0.0226
     10 C         139.9590  139.4302  160.0606 C.ar    1  UNL1       -0.0043
     11 C         139.4089  139.1956  158.6849 C.ar    1  UNL1       -0.0003
     12 C         138.5478  140.2371  158.0338 C.ar    1  UNL1       -0.0000
     13 C         138.2369  141.5132  158.7584 C.ar    1  UNL1       -0.0003
     14 C         138.7870  141.7477  160.1341 C.ar    1  UNL1       -0.0043
     15 C         140.4859  140.0674  167.4903 C.ar    1  UNL1        0.0537
     16 C         141.8579  139.5199  167.7509 C.ar    1  UNL1        0.0045
     17 C         142.6966  140.0925  168.8549 C.ar    1  UNL1        0.0003
     18 C         142.1634  141.2125  169.6982 C.ar    1  UNL1        0.0046
     19 C         140.7914  141.7600  169.4376 C.ar    1  UNL1        0.0555
     20 C         139.9526  141.1874  168.3336 C.ar    1  UNL1        0.0091
     21 C         140.2582  142.8800  170.2809 C.2     1  UNL1        0.2677
     22 O         139.8167  142.6137  171.6895 O.2     1  UNL1       -0.2681
     23 N         140.1665  144.2664  169.7156 N.am    1  UNL1       -0.1934
     24 O         139.6333  145.3864  170.5590 O.3     1  UNL1       -0.2949
     25 H         140.4562  144.4412  168.7911 H       1  UNL1        0.1825
     26 H         139.3952  145.0461  171.4356 H       1  UNL1        0.2414
     27 C         141.0294  141.9138  161.3785 C.3     1  UNL1        0.0215
     28 C         142.4850  141.6374  161.1435 C.3     1  UNL1        0.0723
     29 C         142.5778  141.6001  161.2645 C.3     1  UNL1        0.0893
     30 C         142.4323  140.1711  160.8320 C.3     1  UNL1        0.0386
     31 C         143.1221  139.0816  161.5983 C.3     1  UNL1        0.0594
     32 C         143.9532  138.3609  162.6180 C.3     1  UNL1        0.0174
     33 C         144.5195  139.3819  163.5598 C.3     1  UNL1        0.0174
     34 C         144.0385  140.7336  163.1221 C.3     1  UNL1        0.0594
     35 C         143.4132  141.9394  162.4632 C.3     1  UNL1        0.0386
     36 N         143.1748  140.5480  161.9097 N.3     1  UNL1       -0.2751
     37 C         142.3775  141.5887  158.3225 C.3     1  UNL1        0.0718
     38 C         141.7410  142.7617  159.0072 C.ar    1  UNL1        0.1207
     39 N         140.9862  144.0149  158.6760 N.ar    1  UNL1       -0.2309
     40 C         140.6667  144.7173  159.9623 C.ar    1  UNL1        0.0983
     41 C         139.9403  145.9969  160.2535 C.ar    1  UNL1        0.0206
     42 C         139.7712  146.4574  161.6710 C.ar    1  UNL1        0.0016
     43 C         140.3286  145.6383  162.7973 C.ar    1  UNL1        0.0016
     44 C         141.0550  144.3587  162.5060 C.ar    1  UNL1        0.0188
     45 C         141.2240  143.8982  161.0885 C.ar    1  UNL1        0.0785
     46 N         141.8880  142.6896  160.4982 N.ar    1  UNL1       -0.3167
@<TRIPOS>BOND
     1    37    38    1
     2    38    39   ar
     3    39    40   ar
     4    40    41   ar
     5    41    42   ar
     6    42    43   ar
     7    43    44   ar
     8    44    45   ar
     9    45    46   ar
    10    46    29    1
    11    29    30    1
    12    30    31    1
    13    31    32    1
    14    32    33    1
    15    33    34    1
    16    34    35    1
    17    34    36    1
    18    36    28    1
    19    28    27    1
    20    27     1    1
    21     1     9    1
    22     9    10   ar
    23    10    11   ar
    24    11    12   ar
    25    12    13   ar
    26    13    14   ar
    27     1     2    1
    28     2     3    1
    29     3     4    1
    30     4     5   am
    31     5     6    2
    32     5    15    1
    33    15    16   ar
    34    16    17   ar
    35    17    18   ar
    36    18    19   ar
    37    19    21    1
    38    21    22    2
    39    21    23   am
    40    23    24    1
    41    19    20   ar
    42     4     7    1
    43     7     8    1
    44    46    38   ar
    45    35    29    1
    46     8     1    1
    47    45    40   ar
    48    36    31    1
    49    14     9   ar
    50    20    15   ar
    51    23    25    1
    52    24    26    1
@<TRIPOS>MOLECULE
*****
 46 52 0 0 0
SMALL
GASTEIGER

@<TRIPOS>ATOM
      1 C         140.1386  141.3771  162.9524 C.3     1  UNL1        0.0235
      2 C         140.6192  141.8811  164.2810 C.3     1  UNL1        0.0257
      3 C         140.1908  141.1937  165.5435 C.3     1  UNL1        0.0940
      4 N         139.2819  140.0023  165.4775 N.am    1  UNL1       -0.2761
      5 C         138.8535  139.3149  166.7401 C.2     1  UNL1        0.2490
      6 O         137.9446  138.1235  166.6741 O.2     1  UNL1       -0.2699
      7 C         138.8013  139.4983  164.1490 C.3     1  UNL1        0.0940
      8 C         139.2296  140.1856  162.8865 C.3     1  UNL1        0.0257
      9 C         139.9511  141.2743  161.4677 C.ar    1  UNL1       -0.0226
     10 C         141.0849  140.8177  160.5983 C.ar    1  UNL1       -0.0043
     11 C         140.8973  140.7149  159.1136 C.ar    1  UNL1       -0.0003
     12 C         139.5759  141.0690  158.4984 C.ar    1  UNL1       -0.0000
     13 C         138.4420  141.5257  159.3678 C.ar    1  UNL1       -0.0003
     14 C         138.6297  141.6283  160.8525 C.ar    1  UNL1       -0.0043
     15 C         139.3341  139.8190  168.0686 C.ar    1  UNL1        0.0537
     16 C         138.3808  139.9193  169.2223 C.ar    1  UNL1        0.0045
     17 C         138.8615  140.4234  170.5508 C.ar    1  UNL1        0.0003
     18 C         140.2955  140.8273  170.7255 C.ar    1  UNL1        0.0046
     19 C         141.2489  140.7270  169.5718 C.ar    1  UNL1        0.0555
     20 C         140.7681  140.2229  168.2433 C.ar    1  UNL1        0.0091
     21 C         142.6828  141.1308  169.7465 C.2     1  UNL1        0.2677
     22 O         143.6697  140.1614  170.3267 O.2     1  UNL1       -0.2681
     23 N         143.1300  142.5040  169.3412 N.am    1  UNL1       -0.1934
     24 O         144.5641  142.9079  169.5159 O.3     1  UNL1       -0.2949
     25 H         142.4824  143.1403  168.9604 H       1  UNL1        0.1825
     26 H         145.0631  142.1703  169.9005 H       1  UNL1        0.2414
     27 C         140.9824  142.5327  162.5028 C.3     1  UNL1        0.0215
     28 C         140.5322  143.9386  162.7692 C.3     1  UNL1        0.0723
     29 C         140.4806  143.9826  162.9108 C.3     1  UNL1        0.0893
     30 C         139.0922  143.7791  162.3804 C.3     1  UNL1        0.0386
     31 C         137.9071  144.0323  163.2643 C.3     1  UNL1        0.0594
     32 C         137.0638  144.3909  164.4519 C.3     1  UNL1        0.0174
     33 C         137.9827  144.7721  165.5746 C.3     1  UNL1        0.0174
     34 C         139.3937  144.6491  165.0810 C.3     1  UNL1        0.0594
     35 C         140.6836  144.4393  164.3250 C.3     1  UNL1        0.0386
     36 N         139.3471  144.1918  163.6531 N.3     1  UNL1       -0.2751
     37 C         140.5029  144.6849  160.0469 C.3     1  UNL1        0.0718
     38 C         141.7612  144.0542  160.5656 C.ar    1  UNL1        0.1207
     39 N         143.1179  143.6324  160.0847 N.ar    1  UNL1       -0.2309
     40 C         143.8610  143.0469  161.2488 C.ar    1  UNL1        0.0983
     41 C         145.2389  142.4670  161.3708 C.ar    1  UNL1        0.0206
     42 C         145.7193  141.9469  162.6932 C.ar    1  UNL1        0.0016
     43 C         144.8218  142.0068  163.8935 C.ar    1  UNL1        0.0016
     44 C         143.4439  142.5868  163.7715 C.ar    1  UNL1        0.0188
     45 C         142.9635  143.1068  162.4491 C.ar    1  UNL1        0.0785
     46 N         141.6657  143.7293  162.0269 N.ar    1  UNL1       -0.3167
@<TRIPOS>BOND
     1    37    38    1
     2    38    39   ar
     3    39    40   ar
     4    40    41   ar
     5    41    42   ar
     6    42    43   ar
     7    43    44   ar
     8    44    45   ar
     9    45    46   ar
    10    46    29    1
    11    29    30    1
    12    30    31    1
    13    31    32    1
    14    32    33    1
    15    33    34    1
    16    34    35    1
    17    34    36    1
    18    36    28    1
    19    28    27    1
    20    27     1    1
    21     1     9    1
    22     9    10   ar
    23    10    11   ar
    24    11    12   ar
    25    12    13   ar
    26    13    14   ar
    27     1     2    1
    28     2     3    1
    29     3     4    1
    30     4     5   am
    31     5     6    2
    32     5    15    1
    33    15    16   ar
    34    16    17   ar
    35    17    18   ar
    36    18    19   ar
    37    19    21    1
    38    21    22    2
    39    21    23   am
    40    23    24    1
    41    19    20   ar
    42     4     7    1
    43     7     8    1
    44    46    38   ar
    45    35    29    1
    46     8     1    1
    47    45    40   ar
    48    36    31    1
    49    14     9   ar
    50    20    15   ar
    51    23    25    1
    52    24    26    1
@<TRIPOS>MOLECULE
*****
 46 52 0 0 0
SMALL
GASTEIGER

@<TRIPOS>ATOM
      1 C         140.4976  141.4385  162.1427 C.3     1  UNL1        0.0235
      2 C         141.1602  142.0616  163.3354 C.3     1  UNL1        0.0257
      3 C         141.0114  141.4335  164.6895 C.3     1  UNL1        0.0940
      4 N         140.2000  140.1823  164.8507 N.am    1  UNL1       -0.2761
      5 C         140.0512  139.5542  166.2048 C.2     1  UNL1        0.2490
      6 O         139.2398  138.3029  166.3660 O.2     1  UNL1       -0.2699
      7 C         139.5374  139.5591  163.6580 C.3     1  UNL1        0.0940
      8 C         139.6862  140.1872  162.3040 C.3     1  UNL1        0.0257
      9 C         140.0646  141.2239  160.7226 C.ar    1  UNL1       -0.0226
     10 C         141.0543  140.7494  159.7002 C.ar    1  UNL1       -0.0043
     11 C         140.6212  140.5349  158.2802 C.ar    1  UNL1       -0.0003
     12 C         139.1984  140.7949  157.8826 C.ar    1  UNL1       -0.0000
     13 C         138.2087  141.2694  158.9050 C.ar    1  UNL1       -0.0003
     14 C         138.6419  141.4839  160.3251 C.ar    1  UNL1       -0.0043
     15 C         140.7138  140.1774  167.3975 C.ar    1  UNL1        0.0537
     16 C         142.0694  139.7064  167.8337 C.ar    1  UNL1        0.0045
     17 C         142.7320  140.3297  169.0265 C.ar    1  UNL1        0.0003
     18 C         142.0388  141.4240  169.7829 C.ar    1  UNL1        0.0046
     19 C         140.6832  141.8950  169.3466 C.ar    1  UNL1        0.0555
     20 C         140.0206  141.2717  168.1539 C.ar    1  UNL1        0.0091
     21 C         139.9901  142.9891  170.1031 C.2     1  UNL1        0.2677
     22 O         138.8405  142.6624  171.0097 O.2     1  UNL1       -0.2681
     23 N         140.4465  144.4101  169.9530 N.am    1  UNL1       -0.1934
     24 O         139.7533  145.5044  170.7095 O.3     1  UNL1       -0.2949
     25 H         141.2009  144.6246  169.3580 H       1  UNL1        0.1825
     26 H         139.0387  145.1250  171.2445 H       1  UNL1        0.2414
     27 C         141.1586  142.6152  161.4883 C.3     1  UNL1        0.0215
     28 C         140.7147  144.0079  161.8251 C.3     1  UNL1        0.0723
     29 C         140.6936  144.0553  161.9732 C.3     1  UNL1        0.0893
     30 C         139.2374  143.7522  161.7779 C.3     1  UNL1        0.0386
     31 C         138.2671  143.9797  162.8990 C.3     1  UNL1        0.0594
     32 C         137.6907  144.3448  164.2348 C.3     1  UNL1        0.0174
     33 C         138.8117  144.8262  165.1074 C.3     1  UNL1        0.0174
     34 C         140.0810  144.7585  164.3110 C.3     1  UNL1        0.0594
     35 C         141.1792  144.5859  163.2894 C.3     1  UNL1        0.0386
     36 N         139.7445  144.2354  162.9460 N.3     1  UNL1       -0.2751
     37 C         143.5017  143.2842  162.4372 C.3     1  UNL1        0.0718
     38 C         143.1041  143.4351  160.9987 C.ar    1  UNL1        0.1207
     39 N         143.6946  143.3176  159.6249 N.ar    1  UNL1       -0.2309
     40 C         142.6194  143.6378  158.6292 C.ar    1  UNL1        0.0983
     41 C         142.6210  143.6829  157.1299 C.ar    1  UNL1        0.0206
     42 C         141.3675  144.0433  156.3891 C.ar    1  UNL1        0.0016
     43 C         140.1124  144.3586  157.1476 C.ar    1  UNL1        0.0016
     44 C         140.1108  144.3135  158.6469 C.ar    1  UNL1        0.0188
     45 C         141.3643  143.9531  159.3877 C.ar    1  UNL1        0.0785
     46 N         141.6639  143.8278  160.8521 N.ar    1  UNL1       -0.3167
@<TRIPOS>BOND
     1    37    38    1
     2    38    39   ar
     3    39    40   ar
     4    40    41   ar
     5    41    42   ar
     6    42    43   ar
     7    43    44   ar
     8    44    45   ar
     9    45    46   ar
    10    46    29    1
    11    29    30    1
    12    30    31    1
    13    31    32    1
    14    32    33    1
    15    33    34    1
    16    34    35    1
    17    34    36    1
    18    36    28    1
    19    28    27    1
    20    27     1    1
    21     1     9    1
    22     9    10   ar
    23    10    11   ar
    24    11    12   ar
    25    12    13   ar
    26    13    14   ar
    27     1     2    1
    28     2     3    1
    29     3     4    1
    30     4     5   am
    31     5     6    2
    32     5    15    1
    33    15    16   ar
    34    16    17   ar
    35    17    18   ar
    36    18    19   ar
    37    19    21    1
    38    21    22    2
    39    21    23   am
    40    23    24    1
    41    19    20   ar
    42     4     7    1
    43     7     8    1
    44    46    38   ar
    45    35    29    1
    46     8     1    1
    47    45    40   ar
    48    36    31    1
    49    14     9   ar
    50    20    15   ar
    51    23    25    1
    52    24    26    1
