@<TRIPOS>MOLECULE
*****
 34 38 0 0 0
SMALL
GASTEIGER

@<TRIPOS>ATOM
      1 C         140.6862  139.2109  160.9321 C.3     1  UNL1        0.0747
      2 C         142.1068  139.1886  160.4510 C.3     1  UNL1        0.0369
      3 C         142.4162  138.7667  159.0453 C.3     1  UNL1        0.0741
      4 N         141.3048  138.3670  158.1204 N.3     1  UNL1       -0.2688
      5 C         139.8842  138.3892  158.6015 C.3     1  UNL1        0.0741
      6 C         139.5749  138.8112  160.0073 C.3     1  UNL1        0.0369
      7 O         140.4124  137.1469  163.0919 O.2     1  UNL1       -0.2668
      8 C         140.2400  138.6008  163.4177 C.2     1  UNL1        0.2806
      9 N         140.3769  139.6328  162.3378 N.am    1  UNL1       -0.2999
     10 H         140.2638  140.5871  162.5517 H       1  UNL1        0.1498
     11 C         139.9307  139.0228  164.8236 C.ar    1  UNL1        0.2014
     12 C         138.7724  138.4096  165.5531 C.ar    1  UNL1        0.0843
     13 C         138.4631  138.8316  166.9588 C.ar    1  UNL1        0.2018
     14 O         137.3048  138.2183  167.6884 O.2     1  UNL1       -0.2864
     15 C         139.3121  139.8669  167.6351 C.ar    1  UNL1        0.0737
     16 C         139.0028  140.2889  169.0409 C.ar    1  UNL1        0.0085
     17 C         139.8519  141.3242  169.7172 C.ar    1  UNL1        0.0299
     18 C         141.0102  141.9374  168.9876 C.ar    1  UNL1        0.1432
     19 F         141.8592  142.9727  169.6639 F       1  UNL1       -0.2041
     20 C         141.3195  141.5154  167.5819 C.ar    1  UNL1        0.0672
     21 C         140.4704  140.4801  166.9056 C.ar    1  UNL1        0.1508
     22 O         140.7797  140.0581  165.4999 O.2     1  UNL1       -0.4486
     23 C         141.6141  137.9450  156.7147 C.3     1  UNL1        0.0992
     24 C         141.8427  136.4964  156.3995 C.ar    1  UNL1       -0.0031
     25 C         141.0599  135.8344  155.3046 C.ar    1  UNL1       -0.0027
     26 C         141.2885  134.3859  154.9894 C.ar    1  UNL1        0.0028
     27 C         142.3000  133.5993  155.7692 C.ar    1  UNL1        0.0349
     28 C         142.5286  132.1506  155.4541 C.ar    1  UNL1        0.0097
     29 C         143.5401  131.3640  156.2339 C.ar    1  UNL1        0.0824
     30 C         144.3230  132.0260  157.3288 C.ar    1  UNL1        0.3459
     31 O         145.3345  131.2394  158.1086 O.2     1  UNL1       -0.2445
     32 O         144.0944  133.4746  157.6440 O.2     1  UNL1       -0.4210
     33 C         143.0829  134.2612  156.8642 C.ar    1  UNL1        0.1484
     34 C         142.8542  135.7098  157.1793 C.ar    1  UNL1        0.0347
@<TRIPOS>BOND
     1     7     8    2
     2     8     9   am
     3     9     1    1
     4     1     2    1
     5     2     3    1
     6     3     4    1
     7     4    23    1
     8    23    24    1
     9    24    25   ar
    10    25    26   ar
    11    26    27   ar
    12    27    28   ar
    13    28    29   ar
    14    29    30   ar
    15    30    31    2
    16    30    32   ar
    17    32    33   ar
    18    33    34   ar
    19     4     5    1
    20     5     6    1
    21     8    11    1
    22    11    12   ar
    23    12    13   ar
    24    13    14    2
    25    13    15   ar
    26    15    16   ar
    27    16    17   ar
    28    17    18   ar
    29    18    19    1
    30    18    20   ar
    31    20    21   ar
    32    21    22   ar
    33     6     1    1
    34    22    11   ar
    35    34    24   ar
    36    21    15   ar
    37    33    27   ar
    38     9    10    1
@<TRIPOS>MOLECULE
*****
 34 38 0 0 0
SMALL
GASTEIGER

@<TRIPOS>ATOM
      1 C         137.7690  139.5045  161.4507 C.3     1  UNL1        0.0747
      2 C         138.3738  138.1889  161.8425 C.3     1  UNL1        0.0369
      3 C         138.7668  137.9389  163.2683 C.3     1  UNL1        0.0741
      4 N         138.5551  139.0047  164.3025 N.3     1  UNL1       -0.2688
      5 C         137.9503  140.3203  163.9108 C.3     1  UNL1        0.0741
      6 C         137.5573  140.5702  162.4848 C.3     1  UNL1        0.0369
      7 O         139.7465  140.6989  159.5369 O.2     1  UNL1       -0.2668
      8 C         138.3647  140.3516  159.0680 C.2     1  UNL1        0.2806
      9 N         137.3760  139.7544  160.0249 N.am    1  UNL1       -0.2999
     10 H         136.4690  139.5264  159.7171 H       1  UNL1        0.1498
     11 C         137.9716  140.6015  157.6421 C.ar    1  UNL1        0.2014
     12 C         139.0281  140.7450  156.5870 C.ar    1  UNL1        0.0843
     13 C         138.6349  140.9949  155.1612 C.ar    1  UNL1        0.2018
     14 O         139.6914  141.1384  154.1060 O.2     1  UNL1       -0.2864
     15 C         137.1853  141.1013  154.7905 C.ar    1  UNL1        0.0737
     16 C         136.7922  141.3512  153.3646 C.ar    1  UNL1        0.0085
     17 C         135.3427  141.4576  152.9939 C.ar    1  UNL1        0.0299
     18 C         134.2862  141.3141  154.0491 C.ar    1  UNL1        0.1432
     19 F         132.8366  141.4205  153.6784 F       1  UNL1       -0.2041
     20 C         134.6793  141.0642  155.4749 C.ar    1  UNL1        0.0672
     21 C         136.1289  140.9578  155.8456 C.ar    1  UNL1        0.1508
     22 O         136.5220  140.7079  157.2714 O.2     1  UNL1       -0.4486
     23 C         138.9482  138.7548  165.7283 C.3     1  UNL1        0.0992
     24 C         140.0019  139.6037  166.3757 C.ar    1  UNL1       -0.0031
     25 C         141.1707  140.0911  165.5719 C.ar    1  UNL1       -0.0027
     26 C         142.2243  140.9401  166.2192 C.ar    1  UNL1        0.0028
     27 C         142.1091  141.3016  167.6704 C.ar    1  UNL1        0.0349
     28 C         143.1628  142.1506  168.3178 C.ar    1  UNL1        0.0097
     29 C         143.0475  142.5121  169.7690 C.ar    1  UNL1        0.0824
     30 C         141.8786  142.0247  170.5729 C.ar    1  UNL1        0.3459
     31 O         141.7633  142.3863  172.0241 O.2     1  UNL1       -0.2445
     32 O         140.8250  141.1758  169.9255 O.2     1  UNL1       -0.4210
     33 C         140.9402  140.8142  168.4743 C.ar    1  UNL1        0.1484
     34 C         139.8866  139.9653  167.8269 C.ar    1  UNL1        0.0347
@<TRIPOS>BOND
     1     7     8    2
     2     8     9   am
     3     9     1    1
     4     1     2    1
     5     2     3    1
     6     3     4    1
     7     4    23    1
     8    23    24    1
     9    24    25   ar
    10    25    26   ar
    11    26    27   ar
    12    27    28   ar
    13    28    29   ar
    14    29    30   ar
    15    30    31    2
    16    30    32   ar
    17    32    33   ar
    18    33    34   ar
    19     4     5    1
    20     5     6    1
    21     8    11    1
    22    11    12   ar
    23    12    13   ar
    24    13    14    2
    25    13    15   ar
    26    15    16   ar
    27    16    17   ar
    28    17    18   ar
    29    18    19    1
    30    18    20   ar
    31    20    21   ar
    32    21    22   ar
    33     6     1    1
    34    22    11   ar
    35    34    24   ar
    36    21    15   ar
    37    33    27   ar
    38     9    10    1
@<TRIPOS>MOLECULE
*****
 34 38 0 0 0
SMALL
GASTEIGER

@<TRIPOS>ATOM
      1 C         140.6915  138.4953  161.4951 C.3     1  UNL1        0.0747
      2 C         142.1099  138.4646  161.0080 C.3     1  UNL1        0.0369
      3 C         142.3963  138.3698  159.5387 C.3     1  UNL1        0.0741
      4 N         141.2644  138.3057  158.5564 N.3     1  UNL1       -0.2688
      5 C         139.8460  138.3364  159.0436 C.3     1  UNL1        0.0741
      6 C         139.5596  138.4312  160.5130 C.3     1  UNL1        0.0369
      7 O         140.2943  141.1789  162.7759 O.2     1  UNL1       -0.2668
      8 C         140.2064  139.9319  163.6048 C.2     1  UNL1        0.2806
      9 N         140.4050  138.5900  162.9644 N.am    1  UNL1       -0.2999
     10 H         140.3474  137.7716  163.5085 H       1  UNL1        0.1498
     11 C         139.9200  140.0266  165.0742 C.ar    1  UNL1        0.2014
     12 C         138.8694  139.1518  165.6914 C.ar    1  UNL1        0.0843
     13 C         138.5830  139.2466  167.1608 C.ar    1  UNL1        0.2018
     14 O         137.5323  138.3718  167.7781 O.2     1  UNL1       -0.2864
     15 C         139.3471  140.2161  168.0129 C.ar    1  UNL1        0.0737
     16 C         139.0607  140.3108  169.4823 C.ar    1  UNL1        0.0085
     17 C         139.8248  141.2804  170.3344 C.ar    1  UNL1        0.0299
     18 C         140.8755  142.1551  169.7171 C.ar    1  UNL1        0.1432
     19 F         141.6397  143.1246  170.5692 F       1  UNL1       -0.2041
     20 C         141.1619  142.0604  168.2477 C.ar    1  UNL1        0.0672
     21 C         140.3977  141.0909  167.3956 C.ar    1  UNL1        0.1508
     22 O         140.6842  140.9961  165.9263 O.2     1  UNL1       -0.4486
     23 C         141.5508  138.2109  157.0871 C.3     1  UNL1        0.0992
     24 C         141.6855  136.8671  156.4344 C.ar    1  UNL1       -0.0031
     25 C         140.6668  136.4156  155.4302 C.ar    1  UNL1       -0.0027
     26 C         140.8014  135.0718  154.7775 C.ar    1  UNL1        0.0028
     27 C         141.9548  134.1795  155.1290 C.ar    1  UNL1        0.0349
     28 C         142.0895  132.8357  154.4762 C.ar    1  UNL1        0.0097
     29 C         143.2429  131.9434  154.8277 C.ar    1  UNL1        0.0824
     30 C         144.2616  132.3949  155.8319 C.ar    1  UNL1        0.3459
     31 O         145.4150  131.5026  156.1833 O.2     1  UNL1       -0.2445
     32 O         144.1269  133.7387  156.4846 O.2     1  UNL1       -0.4210
     33 C         142.9735  134.6310  156.1331 C.ar    1  UNL1        0.1484
     34 C         142.8389  135.9748  156.7858 C.ar    1  UNL1        0.0347
@<TRIPOS>BOND
     1     7     8    2
     2     8     9   am
     3     9     1    1
     4     1     2    1
     5     2     3    1
     6     3     4    1
     7     4    23    1
     8    23    24    1
     9    24    25   ar
    10    25    26   ar
    11    26    27   ar
    12    27    28   ar
    13    28    29   ar
    14    29    30   ar
    15    30    31    2
    16    30    32   ar
    17    32    33   ar
    18    33    34   ar
    19     4     5    1
    20     5     6    1
    21     8    11    1
    22    11    12   ar
    23    12    13   ar
    24    13    14    2
    25    13    15   ar
    26    15    16   ar
    27    16    17   ar
    28    17    18   ar
    29    18    19    1
    30    18    20   ar
    31    20    21   ar
    32    21    22   ar
    33     6     1    1
    34    22    11   ar
    35    34    24   ar
    36    21    15   ar
    37    33    27   ar
    38     9    10    1
@<TRIPOS>MOLECULE
*****
 34 38 0 0 0
SMALL
GASTEIGER

@<TRIPOS>ATOM
      1 C         140.3983  140.1901  160.7458 C.3     1  UNL1        0.0747
      2 C         140.6467  141.6389  160.4472 C.3     1  UNL1        0.0369
      3 C         140.6400  142.6457  161.5591 C.3     1  UNL1        0.0741
      4 N         140.3850  142.2036  162.9697 N.3     1  UNL1       -0.2688
      5 C         140.1366  140.7548  163.2683 C.3     1  UNL1        0.0741
      6 C         140.1433  139.7480  162.1563 C.3     1  UNL1        0.0369
      7 O         143.0030  139.1890  159.6442 O.2     1  UNL1       -0.2668
      8 C         141.7073  138.6828  159.0831 C.2     1  UNL1        0.2806
      9 N         140.4050  139.1833  159.6339 N.am    1  UNL1       -0.2999
     10 H         139.5545  138.8511  159.2656 H       1  UNL1        0.1498
     11 C         141.7139  137.6760  157.9712 C.ar    1  UNL1        0.2014
     12 C         140.6986  137.7672  156.8708 C.ar    1  UNL1        0.0843
     13 C         140.7053  136.7604  155.7589 C.ar    1  UNL1        0.2018
     14 O         139.6900  136.8516  154.6585 O.2     1  UNL1       -0.2864
     15 C         141.7272  135.6624  155.7474 C.ar    1  UNL1        0.0737
     16 C         141.7338  134.6556  154.6355 C.ar    1  UNL1        0.0085
     17 C         142.7556  133.5576  154.6240 C.ar    1  UNL1        0.0299
     18 C         143.7709  133.4664  155.7245 C.ar    1  UNL1        0.1432
     19 F         144.7928  132.3684  155.7130 F       1  UNL1       -0.2041
     20 C         143.7643  134.4732  156.8363 C.ar    1  UNL1        0.0672
     21 C         142.7424  135.5712  156.8478 C.ar    1  UNL1        0.1508
     22 O         142.7358  136.5780  157.9597 O.2     1  UNL1       -0.4486
     23 C         140.3784  143.2104  164.0816 C.3     1  UNL1        0.0992
     24 C         141.1130  142.9235  165.3576 C.ar    1  UNL1       -0.0031
     25 C         142.5910  142.6693  165.3312 C.ar    1  UNL1       -0.0027
     26 C         143.3256  142.3824  166.6071 C.ar    1  UNL1        0.0028
     27 C         142.5821  142.3497  167.9095 C.ar    1  UNL1        0.0349
     28 C         143.3167  142.0628  169.1855 C.ar    1  UNL1        0.0097
     29 C         142.5732  142.0300  170.4878 C.ar    1  UNL1        0.0824
     30 C         141.0951  142.2841  170.5142 C.ar    1  UNL1        0.3459
     31 O         140.3515  142.2513  171.8165 O.2     1  UNL1       -0.2445
     32 O         140.3605  142.5710  169.2382 O.2     1  UNL1       -0.4210
     33 C         141.1040  142.6038  167.9359 C.ar    1  UNL1        0.1484
     34 C         140.3695  142.8907  166.6599 C.ar    1  UNL1        0.0347
@<TRIPOS>BOND
     1     7     8    2
     2     8     9   am
     3     9     1    1
     4     1     2    1
     5     2     3    1
     6     3     4    1
     7     4    23    1
     8    23    24    1
     9    24    25   ar
    10    25    26   ar
    11    26    27   ar
    12    27    28   ar
    13    28    29   ar
    14    29    30   ar
    15    30    31    2
    16    30    32   ar
    17    32    33   ar
    18    33    34   ar
    19     4     5    1
    20     5     6    1
    21     8    11    1
    22    11    12   ar
    23    12    13   ar
    24    13    14    2
    25    13    15   ar
    26    15    16   ar
    27    16    17   ar
    28    17    18   ar
    29    18    19    1
    30    18    20   ar
    31    20    21   ar
    32    21    22   ar
    33     6     1    1
    34    22    11   ar
    35    34    24   ar
    36    21    15   ar
    37    33    27   ar
    38     9    10    1
@<TRIPOS>MOLECULE
*****
 34 38 0 0 0
SMALL
GASTEIGER

@<TRIPOS>ATOM
      1 C         138.6464  142.2875  160.2688 C.3     1  UNL1        0.0747
      2 C         138.9721  140.8332  160.0985 C.3     1  UNL1        0.0369
      3 C         138.8823  139.9022  161.2711 C.3     1  UNL1        0.0741
      4 N         138.4669  140.4255  162.6141 N.3     1  UNL1       -0.2688
      5 C         138.1412  141.8797  162.7844 C.3     1  UNL1        0.0741
      6 C         138.2310  142.8108  161.6117 C.3     1  UNL1        0.0369
      7 O         141.1482  143.8764  159.8030 O.2     1  UNL1       -0.2668
      8 C         139.9871  144.0130  158.8633 C.2     1  UNL1        0.2806
      9 N         138.7362  143.2185  159.0962 N.am    1  UNL1       -0.2999
     10 H         137.9742  143.3082  158.4793 H       1  UNL1        0.1498
     11 C         140.0769  144.9440  157.6906 C.ar    1  UNL1        0.2014
     12 C         140.8717  144.5517  156.4806 C.ar    1  UNL1        0.0843
     13 C         140.9614  145.4827  155.3080 C.ar    1  UNL1        0.2018
     14 O         141.7564  145.0904  154.0979 O.2     1  UNL1       -0.2864
     15 C         140.2563  146.8061  155.3454 C.ar    1  UNL1        0.0737
     16 C         140.3460  147.7372  154.1727 C.ar    1  UNL1        0.0085
     17 C         139.6409  149.0606  154.2101 C.ar    1  UNL1        0.0299
     18 C         138.8459  149.4529  155.4202 C.ar    1  UNL1        0.1432
     19 F         138.1408  150.7763  155.4576 F       1  UNL1       -0.2041
     20 C         138.7562  148.5218  156.5928 C.ar    1  UNL1        0.0672
     21 C         139.4614  147.1985  156.5554 C.ar    1  UNL1        0.1508
     22 O         139.3717  146.2674  157.7280 O.2     1  UNL1       -0.4486
     23 C         138.3771  139.4944  163.7867 C.3     1  UNL1        0.0992
     24 C         139.3801  139.5890  164.8981 C.ar    1  UNL1       -0.0031
     25 C         140.8475  139.5765  164.5871 C.ar    1  UNL1       -0.0027
     26 C         141.8504  139.6711  165.6984 C.ar    1  UNL1        0.0028
     27 C         141.3861  139.7782  167.1207 C.ar    1  UNL1        0.0349
     28 C         142.3892  139.8728  168.2320 C.ar    1  UNL1        0.0097
     29 C         141.9248  139.9800  169.6543 C.ar    1  UNL1        0.0824
     30 C         140.4574  139.9925  169.9652 C.ar    1  UNL1        0.3459
     31 O         139.9931  140.0997  171.3875 O.2     1  UNL1       -0.2445
     32 O         139.4544  139.8979  168.8539 O.2     1  UNL1       -0.4210
     33 C         139.9188  139.7908  167.4317 C.ar    1  UNL1        0.1484
     34 C         138.9158  139.6962  166.3204 C.ar    1  UNL1        0.0347
@<TRIPOS>BOND
     1     7     8    2
     2     8     9   am
     3     9     1    1
     4     1     2    1
     5     2     3    1
     6     3     4    1
     7     4    23    1
     8    23    24    1
     9    24    25   ar
    10    25    26   ar
    11    26    27   ar
    12    27    28   ar
    13    28    29   ar
    14    29    30   ar
    15    30    31    2
    16    30    32   ar
    17    32    33   ar
    18    33    34   ar
    19     4     5    1
    20     5     6    1
    21     8    11    1
    22    11    12   ar
    23    12    13   ar
    24    13    14    2
    25    13    15   ar
    26    15    16   ar
    27    16    17   ar
    28    17    18   ar
    29    18    19    1
    30    18    20   ar
    31    20    21   ar
    32    21    22   ar
    33     6     1    1
    34    22    11   ar
    35    34    24   ar
    36    21    15   ar
    37    33    27   ar
    38     9    10    1
@<TRIPOS>MOLECULE
*****
 34 38 0 0 0
SMALL
GASTEIGER

@<TRIPOS>ATOM
      1 C         140.3980  139.3840  160.9260 C.3     1  UNL1        0.0747
      2 C         139.3378  138.8527  160.0075 C.3     1  UNL1        0.0369
      3 C         139.6754  138.5230  158.5837 C.3     1  UNL1        0.0741
      4 N         141.0733  138.7247  158.0783 N.3     1  UNL1       -0.2688
      5 C         142.1335  139.2560  158.9969 C.3     1  UNL1        0.0741
      6 C         141.7958  139.5856  160.4208 C.3     1  UNL1        0.0369
      7 O         140.4124  137.2255  163.0095 O.2     1  UNL1       -0.2668
      8 C         140.0675  138.6344  163.3916 C.2     1  UNL1        0.2806
      9 N         140.0603  139.7136  162.3498 N.am    1  UNL1       -0.2999
     10 H         139.8339  140.6384  162.6006 H       1  UNL1        0.1498
     11 C         139.7299  138.9641  164.8154 C.ar    1  UNL1        0.2014
     12 C         138.5298  138.3415  165.4652 C.ar    1  UNL1        0.0843
     13 C         138.1922  138.6712  166.8890 C.ar    1  UNL1        0.2018
     14 O         136.9921  138.0485  167.5388 O.2     1  UNL1       -0.2864
     15 C         139.0546  139.6236  167.6630 C.ar    1  UNL1        0.0737
     16 C         138.7169  139.9533  169.0869 C.ar    1  UNL1        0.0085
     17 C         139.5793  140.9058  169.8610 C.ar    1  UNL1        0.0299
     18 C         140.7794  141.5284  169.2112 C.ar    1  UNL1        0.1432
     19 F         141.6418  142.4809  169.9852 F       1  UNL1       -0.2041
     20 C         141.1170  141.1987  167.7874 C.ar    1  UNL1        0.0672
     21 C         140.2546  140.2463  167.0133 C.ar    1  UNL1        0.1508
     22 O         140.5923  139.9166  165.5895 O.2     1  UNL1       -0.4486
     23 C         141.4110  138.3950  156.6545 C.3     1  UNL1        0.0992
     24 C         141.8454  137.0066  156.2889 C.ar    1  UNL1       -0.0031
     25 C         142.8892  136.3071  157.1081 C.ar    1  UNL1       -0.0027
     26 C         143.3236  134.9188  156.7424 C.ar    1  UNL1        0.0028
     27 C         142.7141  134.2299  155.5575 C.ar    1  UNL1        0.0349
     28 C         143.1485  132.8414  155.1918 C.ar    1  UNL1        0.0097
     29 C         142.5390  132.1525  154.0069 C.ar    1  UNL1        0.0824
     30 C         141.4951  132.8521  153.1878 C.ar    1  UNL1        0.3459
     31 O         140.8855  132.1632  152.0029 O.2     1  UNL1       -0.2445
     32 O         141.0607  134.2404  153.5534 O.2     1  UNL1       -0.4210
     33 C         141.6702  134.9293  154.7383 C.ar    1  UNL1        0.1484
     34 C         141.2359  136.3177  155.1040 C.ar    1  UNL1        0.0347
@<TRIPOS>BOND
     1     7     8    2
     2     8     9   am
     3     9     1    1
     4     1     2    1
     5     2     3    1
     6     3     4    1
     7     4    23    1
     8    23    24    1
     9    24    25   ar
    10    25    26   ar
    11    26    27   ar
    12    27    28   ar
    13    28    29   ar
    14    29    30   ar
    15    30    31    2
    16    30    32   ar
    17    32    33   ar
    18    33    34   ar
    19     4     5    1
    20     5     6    1
    21     8    11    1
    22    11    12   ar
    23    12    13   ar
    24    13    14    2
    25    13    15   ar
    26    15    16   ar
    27    16    17   ar
    28    17    18   ar
    29    18    19    1
    30    18    20   ar
    31    20    21   ar
    32    21    22   ar
    33     6     1    1
    34    22    11   ar
    35    34    24   ar
    36    21    15   ar
    37    33    27   ar
    38     9    10    1
@<TRIPOS>MOLECULE
*****
 34 38 0 0 0
SMALL
GASTEIGER

@<TRIPOS>ATOM
      1 C         143.1113  139.2281  160.3243 C.3     1  UNL1        0.0747
      2 C         143.8179  140.5102  159.9975 C.3     1  UNL1        0.0369
      3 C         143.7871  141.6524  160.9692 C.3     1  UNL1        0.0741
      4 N         143.0497  141.5125  162.2680 N.3     1  UNL1       -0.2688
      5 C         142.3431  140.2303  162.5949 C.3     1  UNL1        0.0741
      6 C         142.3739  139.0881  161.6230 C.3     1  UNL1        0.0369
      7 O         141.1007  139.0949  158.1018 O.2     1  UNL1       -0.2668
      8 C         142.1368  138.0193  158.2413 C.2     1  UNL1        0.2806
      9 N         143.1421  138.0859  159.3525 N.am    1  UNL1       -0.2999
     10 H         143.8222  137.3799  159.4441 H       1  UNL1        0.1498
     11 C         142.1677  136.8770  157.2695 C.ar    1  UNL1        0.2014
     12 C         141.2457  136.8738  156.0863 C.ar    1  UNL1        0.0843
     13 C         141.2766  135.7316  155.1146 C.ar    1  UNL1        0.2018
     14 O         140.3545  135.7283  153.9314 O.2     1  UNL1       -0.2864
     15 C         142.2294  134.5926  155.3260 C.ar    1  UNL1        0.0737
     16 C         142.2603  133.4503  154.3542 C.ar    1  UNL1        0.0085
     17 C         143.2132  132.3113  154.5656 C.ar    1  UNL1        0.0299
     18 C         144.1352  132.3146  155.7488 C.ar    1  UNL1        0.1432
     19 F         145.0881  131.1756  155.9602 F       1  UNL1       -0.2041
     20 C         144.1043  133.4568  156.7205 C.ar    1  UNL1        0.0672
     21 C         143.1514  134.5958  156.5091 C.ar    1  UNL1        0.1508
     22 O         143.1205  135.7380  157.4809 O.2     1  UNL1       -0.4486
     23 C         143.0188  142.6547  163.2398 C.3     1  UNL1        0.0992
     24 C         142.3703  142.4809  164.5812 C.ar    1  UNL1       -0.0031
     25 C         141.0188  143.0762  164.8436 C.ar    1  UNL1       -0.0027
     26 C         140.3703  142.9024  166.1849 C.ar    1  UNL1        0.0028
     27 C         141.0734  142.1332  167.2639 C.ar    1  UNL1        0.0349
     28 C         140.4249  141.9594  168.6053 C.ar    1  UNL1        0.0097
     29 C         141.1280  141.1903  169.6842 C.ar    1  UNL1        0.0824
     30 C         142.4796  140.5949  169.4217 C.ar    1  UNL1        0.3459
     31 O         143.1827  139.8258  170.5007 O.2     1  UNL1       -0.2445
     32 O         143.1280  140.7687  168.0804 O.2     1  UNL1       -0.4210
     33 C         142.4249  141.5379  167.0015 C.ar    1  UNL1        0.1484
     34 C         143.0734  141.7117  165.6601 C.ar    1  UNL1        0.0347
@<TRIPOS>BOND
     1     7     8    2
     2     8     9   am
     3     9     1    1
     4     1     2    1
     5     2     3    1
     6     3     4    1
     7     4    23    1
     8    23    24    1
     9    24    25   ar
    10    25    26   ar
    11    26    27   ar
    12    27    28   ar
    13    28    29   ar
    14    29    30   ar
    15    30    31    2
    16    30    32   ar
    17    32    33   ar
    18    33    34   ar
    19     4     5    1
    20     5     6    1
    21     8    11    1
    22    11    12   ar
    23    12    13   ar
    24    13    14    2
    25    13    15   ar
    26    15    16   ar
    27    16    17   ar
    28    17    18   ar
    29    18    19    1
    30    18    20   ar
    31    20    21   ar
    32    21    22   ar
    33     6     1    1
    34    22    11   ar
    35    34    24   ar
    36    21    15   ar
    37    33    27   ar
    38     9    10    1
@<TRIPOS>MOLECULE
*****
 34 38 0 0 0
SMALL
GASTEIGER

@<TRIPOS>ATOM
      1 C         141.7685  138.3138  160.6347 C.3     1  UNL1        0.0747
      2 C         142.9663  138.1528  159.7463 C.3     1  UNL1        0.0369
      3 C         142.8065  138.2017  158.2556 C.3     1  UNL1        0.0741
      4 N         141.4488  138.4117  157.6534 N.3     1  UNL1       -0.2688
      5 C         140.2510  138.5727  158.5418 C.3     1  UNL1        0.0741
      6 C         140.4109  138.5238  160.0326 C.3     1  UNL1        0.0369
      7 O         141.4756  140.8197  162.2579 O.2     1  UNL1       -0.2668
      8 C         141.7819  139.5178  162.9369 C.2     1  UNL1        0.2806
      9 N         141.9284  138.2648  162.1253 N.am    1  UNL1       -0.2999
     10 H         142.1294  137.4104  162.5710 H       1  UNL1        0.1498
     11 C         141.9418  139.4688  164.4276 C.ar    1  UNL1        0.2014
     12 C         143.0315  138.6384  165.0381 C.ar    1  UNL1        0.0843
     13 C         143.1913  138.5894  166.5288 C.ar    1  UNL1        0.2018
     14 O         144.2811  137.7589  167.1394 O.2     1  UNL1       -0.2864
     15 C         142.2614  139.3709  167.4089 C.ar    1  UNL1        0.0737
     16 C         142.4213  139.3219  168.8996 C.ar    1  UNL1        0.0085
     17 C         141.4914  140.1033  169.7797 C.ar    1  UNL1        0.0299
     18 C         140.4016  140.9338  169.1690 C.ar    1  UNL1        0.1432
     19 F         139.4717  141.7153  170.0491 F       1  UNL1       -0.2041
     20 C         140.2417  140.9828  167.6784 C.ar    1  UNL1        0.0672
     21 C         141.1717  140.2013  166.7983 C.ar    1  UNL1        0.1508
     22 O         141.0118  140.2503  165.3077 O.2     1  UNL1       -0.4486
     23 C         141.2889  138.4607  156.1628 C.3     1  UNL1        0.0992
     24 C         141.4581  137.2120  155.3489 C.ar    1  UNL1       -0.0031
     25 C         141.6411  137.3043  153.8630 C.ar    1  UNL1       -0.0027
     26 C         141.8103  136.0557  153.0492 C.ar    1  UNL1        0.0028
     27 C         141.7964  134.7148  153.7213 C.ar    1  UNL1        0.0349
     28 C         141.9656  133.4661  152.9074 C.ar    1  UNL1        0.0097
     29 C         141.9517  132.1252  153.5795 C.ar    1  UNL1        0.0824
     30 C         141.7686  132.0329  155.0655 C.ar    1  UNL1        0.3459
     31 O         141.7547  130.6920  155.7376 O.2     1  UNL1       -0.2445
     32 O         141.5994  133.2815  155.8793 O.2     1  UNL1       -0.4210
     33 C         141.6133  134.6225  155.2072 C.ar    1  UNL1        0.1484
     34 C         141.4442  135.8711  156.0210 C.ar    1  UNL1        0.0347
@<TRIPOS>BOND
     1     7     8    2
     2     8     9   am
     3     9     1    1
     4     1     2    1
     5     2     3    1
     6     3     4    1
     7     4    23    1
     8    23    24    1
     9    24    25   ar
    10    25    26   ar
    11    26    27   ar
    12    27    28   ar
    13    28    29   ar
    14    29    30   ar
    15    30    31    2
    16    30    32   ar
    17    32    33   ar
    18    33    34   ar
    19     4     5    1
    20     5     6    1
    21     8    11    1
    22    11    12   ar
    23    12    13   ar
    24    13    14    2
    25    13    15   ar
    26    15    16   ar
    27    16    17   ar
    28    17    18   ar
    29    18    19    1
    30    18    20   ar
    31    20    21   ar
    32    21    22   ar
    33     6     1    1
    34    22    11   ar
    35    34    24   ar
    36    21    15   ar
    37    33    27   ar
    38     9    10    1
@<TRIPOS>MOLECULE
*****
 34 38 0 0 0
SMALL
GASTEIGER

@<TRIPOS>ATOM
      1 C         143.5642  142.1790  160.3629 C.3     1  UNL1        0.0747
      2 C         143.1241  143.4819  160.9619 C.3     1  UNL1        0.0369
      3 C         142.2018  143.4901  162.1447 C.3     1  UNL1        0.0741
      4 N         141.7194  142.1953  162.7286 N.3     1  UNL1       -0.2688
      5 C         142.1594  140.8924  162.1296 C.3     1  UNL1        0.0741
      6 C         143.0818  140.8842  160.9467 C.3     1  UNL1        0.0369
      7 O         142.4563  142.5080  157.5944 O.2     1  UNL1       -0.2668
      8 C         143.9326  142.3353  157.7958 C.2     1  UNL1        0.2806
      9 N         144.4865  142.1708  159.1801 N.am    1  UNL1       -0.2999
     10 H         145.4555  142.0574  159.3122 H       1  UNL1        0.1498
     11 C         144.8550  142.3271  156.6130 C.ar    1  UNL1        0.2014
     12 C         144.3072  142.5414  155.2332 C.ar    1  UNL1        0.0843
     13 C         145.2297  142.5332  154.0504 C.ar    1  UNL1        0.2018
     14 O         144.6819  142.7475  152.6705 O.2     1  UNL1       -0.2864
     15 C         146.6999  142.3107  154.2475 C.ar    1  UNL1        0.0737
     16 C         147.6224  142.3025  153.0646 C.ar    1  UNL1        0.0085
     17 C         149.0927  142.0800  153.2617 C.ar    1  UNL1        0.0299
     18 C         149.6405  141.8658  154.6416 C.ar    1  UNL1        0.1432
     19 F         151.1107  141.6433  154.8386 F       1  UNL1       -0.2041
     20 C         148.7180  141.8740  155.8243 C.ar    1  UNL1        0.0672
     21 C         147.2478  142.0964  155.6273 C.ar    1  UNL1        0.1508
     22 O         146.3253  142.1046  156.8100 O.2     1  UNL1       -0.4486
     23 C         140.7970  142.2035  163.9114 C.3     1  UNL1        0.0992
     24 C         141.3594  142.2628  165.3008 C.ar    1  UNL1       -0.0031
     25 C         142.8438  142.2171  165.5115 C.ar    1  UNL1       -0.0027
     26 C         143.4062  142.2764  166.9008 C.ar    1  UNL1        0.0028
     27 C         142.4842  142.3814  168.0793 C.ar    1  UNL1        0.0349
     28 C         143.0467  142.4407  169.4687 C.ar    1  UNL1        0.0097
     29 C         142.1247  142.5457  170.6472 C.ar    1  UNL1        0.0824
     30 C         140.6402  142.5914  170.4364 C.ar    1  UNL1        0.3459
     31 O         139.7182  142.6964  171.6149 O.2     1  UNL1       -0.2445
     32 O         140.0778  142.5321  169.0471 O.2     1  UNL1       -0.4210
     33 C         140.9998  142.4271  167.8686 C.ar    1  UNL1        0.1484
     34 C         140.4374  142.3678  166.4793 C.ar    1  UNL1        0.0347
@<TRIPOS>BOND
     1     7     8    2
     2     8     9   am
     3     9     1    1
     4     1     2    1
     5     2     3    1
     6     3     4    1
     7     4    23    1
     8    23    24    1
     9    24    25   ar
    10    25    26   ar
    11    26    27   ar
    12    27    28   ar
    13    28    29   ar
    14    29    30   ar
    15    30    31    2
    16    30    32   ar
    17    32    33   ar
    18    33    34   ar
    19     4     5    1
    20     5     6    1
    21     8    11    1
    22    11    12   ar
    23    12    13   ar
    24    13    14    2
    25    13    15   ar
    26    15    16   ar
    27    16    17   ar
    28    17    18   ar
    29    18    19    1
    30    18    20   ar
    31    20    21   ar
    32    21    22   ar
    33     6     1    1
    34    22    11   ar
    35    34    24   ar
    36    21    15   ar
    37    33    27   ar
    38     9    10    1
