@<TRIPOS>MOLECULE
*****
 29 31 0 0 0
SMALL
GASTEIGER

@<TRIPOS>ATOM
      1 C         141.6357  138.2357  158.2236 C.ar    1  UNL1        0.1535
      2 C         140.1646  138.4707  158.3977 C.ar    1  UNL1        0.0377
      3 C         139.5740  138.5404  159.7747 C.ar    1  UNL1        0.0239
      4 C         140.4547  138.3751  160.9777 C.ar    1  UNL1        0.1059
      5 N         141.9259  138.1402  160.8036 N.ar    1  UNL1       -0.1467
      6 N         142.5164  138.0704  159.4266 N.ar    1  UNL1       -0.1329
      7 C         139.8641  138.4448  162.3548 C.ar    1  UNL1        0.0531
      8 C         138.8186  139.4728  162.6714 C.ar    1  UNL1        0.0053
      9 C         138.2280  139.5425  164.0485 C.ar    1  UNL1        0.0105
     10 C         138.6829  138.5842  165.1090 C.ar    1  UNL1        0.0715
     11 C         139.7284  137.5562  164.7924 C.ar    1  UNL1        0.0469
     12 C         140.3190  137.4865  163.4154 C.ar    1  UNL1        0.1358
     13 O         141.3645  136.4585  163.0988 O.3     1  UNL1       -0.5054
     14 H         141.6487  135.8599  163.7612 H       1  UNL1        0.2922
     15 C         138.0924  138.6539  166.4861 C.1     1  UNL1        0.1005
     16 N         137.5018  138.7236  167.8632 N.1     1  UNL1       -0.1908
     17 C         142.7017  139.4176  156.1700 C.3     1  UNL1        0.1135
     18 N         142.2264  138.1660  156.8465 N.pl3   1  UNL1       -0.2916
     19 C         142.3416  136.8447  156.1459 C.3     1  UNL1        0.0768
     20 C         142.8986  135.6566  156.8725 C.3     1  UNL1        0.0342
     21 C         143.0139  134.3352  156.1719 C.3     1  UNL1        0.0435
     22 C         143.3194  132.8853  155.9389 C.3     1  UNL1        0.0158
     23 C         143.5618  133.9649  157.5183 C.3     1  UNL1        0.0158
     24 N         142.5721  134.2020  154.7447 N.3     1  UNL1       -0.3015
     25 C         142.0151  135.3902  154.0179 C.3     1  UNL1        0.0435
     26 C         141.4272  136.2195  152.9149 C.3     1  UNL1        0.0158
     27 C         141.9262  134.3569  152.9343 C.3     1  UNL1        0.0158
     28 C         141.8998  136.7115  154.7185 C.3     1  UNL1        0.0342
     29 H         141.8512  133.4807  154.7257 H       1  UNL1        0.1231
@<TRIPOS>BOND
     1    17    18    1
     2    18     1    1
     3     1     2   ar
     4     2     3   ar
     5     3     4   ar
     6     4     7    1
     7     7     8   ar
     8     8     9   ar
     9     9    10   ar
    10    10    15    1
    11    15    16    3
    12    10    11   ar
    13    11    12   ar
    14    12    13    1
    15     4     5   ar
    16     5     6   ar
    17    18    19    1
    18    19    20    1
    19    20    21    1
    20    21    22    1
    21    21    23    1
    22    21    24    1
    23    24    25    1
    24    25    26    1
    25    25    27    1
    26    25    28    1
    27     6     1   ar
    28    28    19    1
    29    12     7   ar
    30    13    14    1
    31    24    29    1
@<TRIPOS>MOLECULE
*****
 29 31 0 0 0
SMALL
GASTEIGER

@<TRIPOS>ATOM
      1 C         141.6658  138.2585  158.2301 C.ar    1  UNL1        0.1535
      2 C         140.1900  138.4672  158.3986 C.ar    1  UNL1        0.0377
      3 C         139.5940  138.5327  159.7735 C.ar    1  UNL1        0.0239
      4 C         140.4737  138.3896  160.9799 C.ar    1  UNL1        0.1059
      5 N         141.9495  138.1809  160.8114 N.ar    1  UNL1       -0.1467
      6 N         142.5456  138.1154  159.4365 N.ar    1  UNL1       -0.1329
      7 C         139.8776  138.4551  162.3549 C.ar    1  UNL1        0.0531
      8 C         138.8307  139.4819  162.6702 C.ar    1  UNL1        0.0053
      9 C         138.2346  139.5475  164.0452 C.ar    1  UNL1        0.0105
     10 C         138.6855  138.5862  165.1047 C.ar    1  UNL1        0.0715
     11 C         139.7325  137.5593  164.7893 C.ar    1  UNL1        0.0469
     12 C         140.3285  137.4938  163.4144 C.ar    1  UNL1        0.1358
     13 O         141.3756  136.4670  163.0989 O.3     1  UNL1       -0.5054
     14 H         141.6573  135.8665  163.7608 H       1  UNL1        0.2922
     15 C         138.0894  138.6517  166.4796 C.1     1  UNL1        0.1005
     16 N         137.4934  138.7172  167.8545 N.1     1  UNL1       -0.1908
     17 C         142.7513  139.4449  156.1894 C.3     1  UNL1        0.1135
     18 N         142.2619  138.1930  156.8551 N.pl3   1  UNL1       -0.2916
     19 C         142.3686  136.8755  156.1460 C.3     1  UNL1        0.0768
     20 C         141.9325  136.7562  154.7158 C.3     1  UNL1        0.0342
     21 C         142.0392  135.4387  154.0066 C.3     1  UNL1        0.0435
     22 C         141.9461  134.4137  152.9154 C.3     1  UNL1        0.0158
     23 C         141.4641  136.2809  152.9066 C.3     1  UNL1        0.0158
     24 N         142.5819  134.2406  154.7277 N.3     1  UNL1       -0.3015
     25 C         143.0180  134.3599  156.1580 C.3     1  UNL1        0.0435
     26 C         143.5560  133.9754  157.5043 C.3     1  UNL1        0.0158
     27 C         143.3115  132.9089  155.9164 C.3     1  UNL1        0.0158
     28 C         142.9113  135.6774  156.8671 C.3     1  UNL1        0.0342
     29 H         143.3930  133.9207  154.1983 H       1  UNL1        0.1231
@<TRIPOS>BOND
     1    17    18    1
     2    18     1    1
     3     1     2   ar
     4     2     3   ar
     5     3     4   ar
     6     4     7    1
     7     7     8   ar
     8     8     9   ar
     9     9    10   ar
    10    10    15    1
    11    15    16    3
    12    10    11   ar
    13    11    12   ar
    14    12    13    1
    15     4     5   ar
    16     5     6   ar
    17    18    19    1
    18    19    20    1
    19    20    21    1
    20    21    22    1
    21    21    23    1
    22    21    24    1
    23    24    25    1
    24    25    26    1
    25    25    27    1
    26    25    28    1
    27     6     1   ar
    28    28    19    1
    29    12     7   ar
    30    13    14    1
    31    24    29    1
@<TRIPOS>MOLECULE
*****
 29 31 0 0 0
SMALL
GASTEIGER

@<TRIPOS>ATOM
      1 C         140.4965  145.1862  157.1112 C.ar    1  UNL1        0.1535
      2 C         139.5726  144.1441  157.6682 C.ar    1  UNL1        0.0377
      3 C         139.6497  143.7718  159.1192 C.ar    1  UNL1        0.0239
      4 C         140.6508  144.4415  160.0132 C.ar    1  UNL1        0.1059
      5 N         141.5748  145.4836  159.4562 N.ar    1  UNL1       -0.1467
      6 N         141.4976  145.8560  158.0052 N.ar    1  UNL1       -0.1329
      7 C         140.7280  144.0691  161.4642 C.ar    1  UNL1        0.0531
      8 C         140.9688  142.6426  161.8606 C.ar    1  UNL1        0.0053
      9 C         141.0459  142.2702  163.3117 C.ar    1  UNL1        0.0105
     10 C         140.8822  143.3243  164.3662 C.ar    1  UNL1        0.0715
     11 C         140.6414  144.7508  163.9697 C.ar    1  UNL1        0.0469
     12 C         140.5643  145.1232  162.5188 C.ar    1  UNL1        0.1358
     13 O         140.3235  146.5497  162.1223 O.3     1  UNL1       -0.5054
     14 H         140.2212  147.2082  162.7810 H       1  UNL1        0.2922
     15 C         140.9593  142.9520  165.8172 C.1     1  UNL1        0.1005
     16 N         141.0364  142.5796  167.2682 N.1     1  UNL1       -0.1908
     17 C         140.7247  144.5360  154.6062 C.3     1  UNL1        0.1135
     18 N         140.4194  145.5586  155.6602 N.pl3   1  UNL1       -0.2916
     19 C         140.0369  146.9537  155.2633 C.3     1  UNL1        0.0768
     20 C         139.2640  147.8188  156.2142 C.3     1  UNL1        0.0342
     21 C         138.8816  149.2138  155.8172 C.3     1  UNL1        0.0435
     22 C         138.2925  150.5909  155.8982 C.3     1  UNL1        0.0158
     23 C         138.2866  149.1621  157.1932 C.3     1  UNL1        0.0158
     24 N         139.2720  149.7438  154.4694 N.3     1  UNL1       -0.3015
     25 C         140.0449  148.8787  153.5184 C.3     1  UNL1        0.0435
     26 C         140.7728  148.4459  152.2804 C.3     1  UNL1        0.0158
     27 C         139.9153  150.1234  152.6916 C.3     1  UNL1        0.0158
     28 C         140.4274  147.4836  153.9154 C.3     1  UNL1        0.0342
     29 H         139.8356  150.5781  154.6330 H       1  UNL1        0.1231
@<TRIPOS>BOND
     1    17    18    1
     2    18     1    1
     3     1     2   ar
     4     2     3   ar
     5     3     4   ar
     6     4     7    1
     7     7     8   ar
     8     8     9   ar
     9     9    10   ar
    10    10    15    1
    11    15    16    3
    12    10    11   ar
    13    11    12   ar
    14    12    13    1
    15     4     5   ar
    16     5     6   ar
    17    18    19    1
    18    19    20    1
    19    20    21    1
    20    21    22    1
    21    21    23    1
    22    21    24    1
    23    24    25    1
    24    25    26    1
    25    25    27    1
    26    25    28    1
    27     6     1   ar
    28    28    19    1
    29    12     7   ar
    30    13    14    1
    31    24    29    1
@<TRIPOS>MOLECULE
*****
 29 31 0 0 0
SMALL
GASTEIGER

@<TRIPOS>ATOM
      1 C         141.6521  141.3382  163.7942 C.ar    1  UNL1        0.1535
      2 C         141.7055  140.5764  162.5032 C.ar    1  UNL1        0.0377
      3 C         141.3440  141.2560  161.2159 C.ar    1  UNL1        0.0239
      4 C         140.9292  142.6975  161.2195 C.ar    1  UNL1        0.1059
      5 N         140.8759  143.4594  162.5105 N.ar    1  UNL1       -0.1467
      6 N         141.2374  142.7797  163.7978 N.ar    1  UNL1       -0.1329
      7 C         140.5677  143.3772  159.9320 C.ar    1  UNL1        0.0531
      8 C         139.8060  142.6301  158.8777 C.ar    1  UNL1        0.0053
      9 C         139.4445  143.3098  157.5902 C.ar    1  UNL1        0.0105
     10 C         139.8448  144.7365  157.3572 C.ar    1  UNL1        0.0715
     11 C         140.6065  145.4835  158.4116 C.ar    1  UNL1        0.0469
     12 C         140.9680  144.8039  159.6990 C.ar    1  UNL1        0.1358
     13 O         141.7297  145.5509  160.7534 O.3     1  UNL1       -0.5054
     14 H         141.9797  146.4421  160.6078 H       1  UNL1        0.2922
     15 C         139.4833  145.4161  156.0698 C.1     1  UNL1        0.1005
     16 N         139.1219  146.0958  154.7824 N.1     1  UNL1       -0.1908
     17 C         143.4491  140.3527  165.3910 C.3     1  UNL1        0.1135
     18 N         142.0136  140.6586  165.0817 N.pl3   1  UNL1       -0.2916
     19 C         140.9396  140.2849  166.0598 C.3     1  UNL1        0.0768
     20 C         140.9624  140.8475  167.4500 C.3     1  UNL1        0.0342
     21 C         139.8884  140.4738  168.4282 C.3     1  UNL1        0.0435
     22 C         139.1002  140.4186  169.7032 C.3     1  UNL1        0.0158
     23 C         140.7116  141.3910  169.2831 C.3     1  UNL1        0.0158
     24 N         138.7914  139.5375  168.0160 N.3     1  UNL1       -0.3015
     25 C         138.7685  138.9748  166.6257 C.3     1  UNL1        0.0435
     26 C         138.3183  138.1874  165.4310 C.3     1  UNL1        0.0158
     27 C         137.5381  138.3277  167.1889 C.3     1  UNL1        0.0158
     28 C         139.8426  139.3485  165.6476 C.3     1  UNL1        0.0342
     29 H         137.9124  140.0386  168.1454 H       1  UNL1        0.1231
@<TRIPOS>BOND
     1    17    18    1
     2    18     1    1
     3     1     2   ar
     4     2     3   ar
     5     3     4   ar
     6     4     7    1
     7     7     8   ar
     8     8     9   ar
     9     9    10   ar
    10    10    15    1
    11    15    16    3
    12    10    11   ar
    13    11    12   ar
    14    12    13    1
    15     4     5   ar
    16     5     6   ar
    17    18    19    1
    18    19    20    1
    19    20    21    1
    20    21    22    1
    21    21    23    1
    22    21    24    1
    23    24    25    1
    24    25    26    1
    25    25    27    1
    26    25    28    1
    27     6     1   ar
    28    28    19    1
    29    12     7   ar
    30    13    14    1
    31    24    29    1
@<TRIPOS>MOLECULE
*****
 29 31 0 0 0
SMALL
GASTEIGER

@<TRIPOS>ATOM
      1 C         141.3919  142.3031  164.7137 C.ar    1  UNL1        0.1535
      2 C         140.6707  143.5978  164.4826 C.ar    1  UNL1        0.0377
      3 C         140.4122  144.0730  163.0835 C.ar    1  UNL1        0.0239
      4 C         140.8750  143.2533  161.9156 C.ar    1  UNL1        0.1059
      5 N         141.5962  141.9586  162.1467 N.ar    1  UNL1       -0.1467
      6 N         141.8547  141.4835  163.5457 N.ar    1  UNL1       -0.1329
      7 C         140.6164  143.7285  160.5165 C.ar    1  UNL1        0.0531
      8 C         141.1770  145.0409  160.0545 C.ar    1  UNL1        0.0053
      9 C         140.9184  145.5161  158.6554 C.ar    1  UNL1        0.0105
     10 C         140.0994  144.6788  157.7183 C.ar    1  UNL1        0.0715
     11 C         139.5388  143.3664  158.1803 C.ar    1  UNL1        0.0469
     12 C         139.7974  142.8913  159.5794 C.ar    1  UNL1        0.1358
     13 O         139.2368  141.5789  160.0414 O.3     1  UNL1       -0.5054
     14 H         138.7252  141.0558  159.4560 H       1  UNL1        0.2922
     15 C         139.8408  145.1540  156.3193 C.1     1  UNL1        0.1005
     16 N         139.5823  145.6291  154.9202 N.1     1  UNL1       -0.1908
     17 C         142.9608  142.1299  166.7773 C.3     1  UNL1        0.1135
     18 N         141.6505  141.8279  166.1128 N.pl3   1  UNL1       -0.2916
     19 C         140.5986  141.0507  166.8473 C.3     1  UNL1        0.0768
     20 C         140.4012  141.2614  168.3192 C.3     1  UNL1        0.0342
     21 C         139.3493  140.4842  169.0537 C.3     1  UNL1        0.0435
     22 C         138.4906  139.9905  170.1801 C.3     1  UNL1        0.0158
     23 C         139.9056  141.3006  170.1823 C.3     1  UNL1        0.0158
     24 N         138.4948  139.4963  168.3162 N.3     1  UNL1       -0.3015
     25 C         138.6922  139.2855  166.8442 C.3     1  UNL1        0.0435
     26 C         138.5012  138.7390  165.4604 C.3     1  UNL1        0.0158
     27 C         137.5740  138.3186  167.0981 C.3     1  UNL1        0.0158
     28 C         139.7441  140.0628  166.1097 C.3     1  UNL1        0.0342
     29 H         137.5267  139.7909  168.4443 H       1  UNL1        0.1231
@<TRIPOS>BOND
     1    17    18    1
     2    18     1    1
     3     1     2   ar
     4     2     3   ar
     5     3     4   ar
     6     4     7    1
     7     7     8   ar
     8     8     9   ar
     9     9    10   ar
    10    10    15    1
    11    15    16    3
    12    10    11   ar
    13    11    12   ar
    14    12    13    1
    15     4     5   ar
    16     5     6   ar
    17    18    19    1
    18    19    20    1
    19    20    21    1
    20    21    22    1
    21    21    23    1
    22    21    24    1
    23    24    25    1
    24    25    26    1
    25    25    27    1
    26    25    28    1
    27     6     1   ar
    28    28    19    1
    29    12     7   ar
    30    13    14    1
    31    24    29    1
@<TRIPOS>MOLECULE
*****
 29 31 0 0 0
SMALL
GASTEIGER

@<TRIPOS>ATOM
      1 C         141.6650  141.4131  163.8233 C.ar    1  UNL1        0.1535
      2 C         141.7487  140.6341  162.5442 C.ar    1  UNL1        0.0377
      3 C         141.3796  141.2851  161.2442 C.ar    1  UNL1        0.0239
      4 C         140.9268  142.7150  161.2233 C.ar    1  UNL1        0.1059
      5 N         140.8432  143.4939  162.5025 N.ar    1  UNL1       -0.1467
      6 N         141.2122  142.8430  163.8024 N.ar    1  UNL1       -0.1329
      7 C         140.5578  143.3659  159.9233 C.ar    1  UNL1        0.0531
      8 C         139.8082  142.5891  158.8818 C.ar    1  UNL1        0.0053
      9 C         139.4392  143.2401  157.5817 C.ar    1  UNL1        0.0105
     10 C         139.8197  144.6678  157.3232 C.ar    1  UNL1        0.0715
     11 C         140.5692  145.4446  158.3648 C.ar    1  UNL1        0.0469
     12 C         140.9383  144.7936  159.6648 C.ar    1  UNL1        0.1358
     13 O         141.6878  145.5704  160.7064 O.3     1  UNL1       -0.5054
     14 H         141.9255  146.4623  160.5449 H       1  UNL1        0.2922
     15 C         139.4506  145.3188  156.0232 C.1     1  UNL1        0.1005
     16 N         139.0816  145.9697  154.7232 N.1     1  UNL1       -0.1908
     17 C         143.4750  140.5045  165.4507 C.3     1  UNL1        0.1135
     18 N         142.0341  140.7621  165.1234 N.pl3   1  UNL1       -0.2916
     19 C         140.9621  140.3689  166.0961 C.3     1  UNL1        0.0768
     20 C         139.8753  139.4254  165.6736 C.3     1  UNL1        0.0342
     21 C         138.8033  139.0321  166.6463 C.3     1  UNL1        0.0435
     22 C         137.5785  138.3676  167.2014 C.3     1  UNL1        0.0158
     23 C         138.3631  138.2510  165.4438 C.3     1  UNL1        0.0158
     24 N         138.8182  139.5824  168.0416 N.3     1  UNL1       -0.3015
     25 C         139.9050  140.5260  168.4643 C.3     1  UNL1        0.0435
     26 C         140.7175  141.4436  169.3290 C.3     1  UNL1        0.0158
     27 C         139.1152  140.4514  169.7373 C.3     1  UNL1        0.0158
     28 C         140.9770  140.9192  167.4915 C.3     1  UNL1        0.0342
     29 H         138.8606  138.7825  168.6732 H       1  UNL1        0.1231
@<TRIPOS>BOND
     1    17    18    1
     2    18     1    1
     3     1     2   ar
     4     2     3   ar
     5     3     4   ar
     6     4     7    1
     7     7     8   ar
     8     8     9   ar
     9     9    10   ar
    10    10    15    1
    11    15    16    3
    12    10    11   ar
    13    11    12   ar
    14    12    13    1
    15     4     5   ar
    16     5     6   ar
    17    18    19    1
    18    19    20    1
    19    20    21    1
    20    21    22    1
    21    21    23    1
    22    21    24    1
    23    24    25    1
    24    25    26    1
    25    25    27    1
    26    25    28    1
    27     6     1   ar
    28    28    19    1
    29    12     7   ar
    30    13    14    1
    31    24    29    1
@<TRIPOS>MOLECULE
*****
 29 31 0 0 0
SMALL
GASTEIGER

@<TRIPOS>ATOM
      1 C         139.4584  141.2457  164.5613 C.ar    1  UNL1        0.1535
      2 C         140.1836  140.6213  163.4062 C.ar    1  UNL1        0.0377
      3 C         140.3578  141.3867  162.1280 C.ar    1  UNL1        0.0239
      4 C         139.8069  142.7764  162.0049 C.ar    1  UNL1        0.1059
      5 N         139.0817  143.4007  163.1600 N.ar    1  UNL1       -0.1467
      6 N         138.9074  142.6354  164.4381 N.ar    1  UNL1       -0.1329
      7 C         139.9812  143.5417  160.7266 C.ar    1  UNL1        0.0531
      8 C         139.4489  142.9839  159.4400 C.ar    1  UNL1        0.0053
      9 C         139.6232  143.7493  158.1617 C.ar    1  UNL1        0.0105
     10 C         140.3298  145.0724  158.1701 C.ar    1  UNL1        0.0715
     11 C         140.8621  145.6302  159.4569 C.ar    1  UNL1        0.0469
     12 C         140.6878  144.8649  160.7351 C.ar    1  UNL1        0.1358
     13 O         141.2200  145.4226  162.0218 O.3     1  UNL1       -0.5054
     14 H         141.6614  146.2491  162.0271 H       1  UNL1        0.2922
     15 C         140.5041  145.8378  156.8919 C.1     1  UNL1        0.1005
     16 N         140.6784  146.6031  155.6138 N.1     1  UNL1       -0.1908
     17 C         138.2784  139.3702  165.9179 C.3     1  UNL1        0.1135
     18 N         139.2841  140.4803  165.8396 N.pl3   1  UNL1       -0.2916
     19 C         140.1155  140.8252  167.0395 C.3     1  UNL1        0.0768
     20 C         139.6116  140.5102  168.4167 C.3     1  UNL1        0.0342
     21 C         140.4430  140.8550  169.6166 C.3     1  UNL1        0.0435
     22 C         140.8611  140.9866  171.0511 C.3     1  UNL1        0.0158
     23 C         139.2529  140.2408  170.2922 C.3     1  UNL1        0.0158
     24 N         141.7783  141.5149  169.4393 N.3     1  UNL1       -0.3015
     25 C         142.2823  141.8300  168.0621 C.3     1  UNL1        0.0435
     26 C         143.1836  142.3244  166.9698 C.3     1  UNL1        0.0158
     27 C         143.4267  142.3465  168.8826 C.3     1  UNL1        0.0158
     28 C         141.4508  141.4851  166.8621 C.3     1  UNL1        0.0342
     29 H         142.4693  140.9025  169.8728 H       1  UNL1        0.1231
@<TRIPOS>BOND
     1    17    18    1
     2    18     1    1
     3     1     2   ar
     4     2     3   ar
     5     3     4   ar
     6     4     7    1
     7     7     8   ar
     8     8     9   ar
     9     9    10   ar
    10    10    15    1
    11    15    16    3
    12    10    11   ar
    13    11    12   ar
    14    12    13    1
    15     4     5   ar
    16     5     6   ar
    17    18    19    1
    18    19    20    1
    19    20    21    1
    20    21    22    1
    21    21    23    1
    22    21    24    1
    23    24    25    1
    24    25    26    1
    25    25    27    1
    26    25    28    1
    27     6     1   ar
    28    28    19    1
    29    12     7   ar
    30    13    14    1
    31    24    29    1
@<TRIPOS>MOLECULE
*****
 29 31 0 0 0
SMALL
GASTEIGER

@<TRIPOS>ATOM
      1 C         142.4139  138.5190  158.2396 C.ar    1  UNL1        0.1535
      2 C         141.1825  138.3485  159.0790 C.ar    1  UNL1        0.0377
      3 C         141.2802  138.4081  160.5746 C.ar    1  UNL1        0.0239
      4 C         142.6092  138.6382  161.2308 C.ar    1  UNL1        0.1059
      5 N         143.8406  138.8088  160.3914 N.ar    1  UNL1       -0.1467
      6 N         143.7429  138.7492  158.8958 N.ar    1  UNL1       -0.1329
      7 C         142.7068  138.6979  162.7265 C.ar    1  UNL1        0.0531
      8 C         141.6787  138.0081  163.5733 C.ar    1  UNL1        0.0053
      9 C         141.7763  138.0677  165.0690 C.ar    1  UNL1        0.0105
     10 C         142.9021  138.8171  165.7178 C.ar    1  UNL1        0.0715
     11 C         143.9303  139.5069  164.8709 C.ar    1  UNL1        0.0469
     12 C         143.8327  139.4472  163.3753 C.ar    1  UNL1        0.1358
     13 O         144.8609  140.1370  162.5284 O.3     1  UNL1       -0.5054
     14 H         145.5641  140.6051  162.9337 H       1  UNL1        0.2922
     15 C         142.9998  138.8768  167.2134 C.1     1  UNL1        0.1005
     16 N         143.0975  138.9364  168.7090 N.1     1  UNL1       -0.1908
     17 C         142.1509  139.7226  155.9522 C.3     1  UNL1        0.1135
     18 N         142.3162  138.4594  156.7439 N.pl3   1  UNL1       -0.2916
     19 C         142.3839  137.1365  156.0401 C.3     1  UNL1        0.0768
     20 C         142.8669  135.9205  156.7736 C.3     1  UNL1        0.0342
     21 C         142.9346  134.5976  156.0697 C.3     1  UNL1        0.0435
     22 C         143.1755  133.1356  155.8370 C.3     1  UNL1        0.0158
     23 C         143.4335  134.1968  157.4263 C.3     1  UNL1        0.0158
     24 N         142.5193  134.4907  154.6324 N.3     1  UNL1       -0.3015
     25 C         142.0364  135.7068  153.8987 C.3     1  UNL1        0.0435
     26 C         141.5139  136.5671  152.7866 C.3     1  UNL1        0.0158
     27 C         141.9226  134.6827  152.8087 C.3     1  UNL1        0.0158
     28 C         141.9687  137.0297  154.6026 C.3     1  UNL1        0.0342
     29 H         141.7653  133.8049  154.5939 H       1  UNL1        0.1231
@<TRIPOS>BOND
     1    17    18    1
     2    18     1    1
     3     1     2   ar
     4     2     3   ar
     5     3     4   ar
     6     4     7    1
     7     7     8   ar
     8     8     9   ar
     9     9    10   ar
    10    10    15    1
    11    15    16    3
    12    10    11   ar
    13    11    12   ar
    14    12    13    1
    15     4     5   ar
    16     5     6   ar
    17    18    19    1
    18    19    20    1
    19    20    21    1
    20    21    22    1
    21    21    23    1
    22    21    24    1
    23    24    25    1
    24    25    26    1
    25    25    27    1
    26    25    28    1
    27     6     1   ar
    28    28    19    1
    29    12     7   ar
    30    13    14    1
    31    24    29    1
@<TRIPOS>MOLECULE
*****
 29 31 0 0 0
SMALL
GASTEIGER

@<TRIPOS>ATOM
      1 C         139.5345  140.2326  161.7284 C.ar    1  UNL1        0.1535
      2 C         140.8897  140.2562  162.3708 C.ar    1  UNL1        0.0377
      3 C         141.0190  140.5354  163.8389 C.ar    1  UNL1        0.0239
      4 C         139.7931  140.7911  164.6646 C.ar    1  UNL1        0.1059
      5 N         138.4378  140.7675  164.0222 N.ar    1  UNL1       -0.1467
      6 N         138.3085  140.4882  162.5541 N.ar    1  UNL1       -0.1329
      7 C         139.9224  141.0703  166.1327 C.ar    1  UNL1        0.0531
      8 C         140.5749  142.3373  166.6005 C.ar    1  UNL1        0.0053
      9 C         140.7042  142.6165  168.0687 C.ar    1  UNL1        0.0105
     10 C         140.1811  141.6287  169.0689 C.ar    1  UNL1        0.0715
     11 C         139.5286  140.3616  168.6010 C.ar    1  UNL1        0.0469
     12 C         139.3992  140.0825  167.1329 C.ar    1  UNL1        0.1358
     13 O         138.7467  138.8154  166.6650 O.3     1  UNL1       -0.5054
     14 H         138.4199  138.1983  167.2898 H       1  UNL1        0.2922
     15 C         140.3104  141.9078  170.5370 C.1     1  UNL1        0.1005
     16 N         140.4397  142.1870  172.0051 N.1     1  UNL1       -0.1908
     17 C         139.5010  138.5449  159.7534 C.3     1  UNL1        0.1135
     18 N         139.4051  139.9534  160.2603 N.pl3   1  UNL1       -0.2916
     19 C         139.1799  141.0827  159.2991 C.3     1  UNL1        0.0768
     20 C         138.0920  140.9868  158.2709 C.3     1  UNL1        0.0342
     21 C         137.8668  142.1161  157.3096 C.3     1  UNL1        0.0435
     22 C         137.2701  142.9164  156.1902 C.3     1  UNL1        0.0158
     23 C         136.7969  141.1688  156.8539 C.3     1  UNL1        0.0158
     24 N         138.7295  143.3413  157.3766 N.3     1  UNL1       -0.3015
     25 C         139.8175  143.4373  158.4049 C.3     1  UNL1        0.0435
     26 C         140.9657  143.9923  159.1945 C.3     1  UNL1        0.0158
     27 C         139.9911  144.7593  157.7179 C.3     1  UNL1        0.0158
     28 C         140.0427  142.3080  159.3661 C.3     1  UNL1        0.0342
     29 H         138.1054  144.1327  157.5336 H       1  UNL1        0.1231
@<TRIPOS>BOND
     1    17    18    1
     2    18     1    1
     3     1     2   ar
     4     2     3   ar
     5     3     4   ar
     6     4     7    1
     7     7     8   ar
     8     8     9   ar
     9     9    10   ar
    10    10    15    1
    11    15    16    3
    12    10    11   ar
    13    11    12   ar
    14    12    13    1
    15     4     5   ar
    16     5     6   ar
    17    18    19    1
    18    19    20    1
    19    20    21    1
    20    21    22    1
    21    21    23    1
    22    21    24    1
    23    24    25    1
    24    25    26    1
    25    25    27    1
    26    25    28    1
    27     6     1   ar
    28    28    19    1
    29    12     7   ar
    30    13    14    1
    31    24    29    1
