@<TRIPOS>MOLECULE
*****
 22 22 0 0 0
SMALL
GASTEIGER

@<TRIPOS>ATOM
      1 N         141.7476  141.6189  169.7484 N.4     1  UNL1        0.3069
      2 C         142.6510  140.5621  170.3115 C.3     1  UNL1        0.1098
      3 C         142.4406  139.1227  169.9454 C.3     1  UNL1        0.0672
      4 C         140.8443  142.6757  169.1853 C.3     1  UNL1        0.1098
      5 C         140.5997  143.9406  169.9536 C.3     1  UNL1        0.0672
      6 C         140.5516  140.8579  170.2388 C.3     1  UNL1        0.1096
      7 C         139.3195  140.7679  169.3881 C.3     1  UNL1        0.0611
      8 C         139.2449  139.7590  168.2805 C.3     1  UNL1        0.0061
      9 C         139.8301  140.0764  166.9363 C.3     1  UNL1        0.0002
     10 C         141.2144  139.6123  166.5925 C.3     1  UNL1        0.0000
     11 C         142.9400  138.8398  164.8105 C.3     1  UNL1        0.0000
     12 C         141.6205  139.4638  165.1561 C.3     1  UNL1        0.0000
     13 C         142.9436  142.3799  169.2580 C.3     1  UNL1        0.1873
     14 C         143.2567  142.4211  167.7916 C.1     1  UNL1       -0.0258
     15 C         143.5698  142.4624  166.3252 C.1     1  UNL1       -0.0588
     16 C         143.8829  142.5037  164.8589 C.ar    1  UNL1        0.0419
     17 C         145.1178  141.8313  164.3364 C.ar    1  UNL1        0.0091
     18 C         145.4309  141.8726  162.8700 C.ar    1  UNL1        0.0120
     19 C         144.5091  142.5863  161.9261 C.ar    1  UNL1        0.0577
     20 CL        144.8222  142.6275  160.4597 Cl      1  UNL1       -0.0822
     21 C         143.2743  143.2586  162.4486 C.ar    1  UNL1        0.0120
     22 C         142.9612  143.2174  163.9149 C.ar    1  UNL1        0.0091
@<TRIPOS>UNITY_ATOM_ATTR
1 1
charge 1
@<TRIPOS>BOND
     1    11    12    1
     2    12    10    1
     3    10     9    1
     4     9     8    1
     5     8     7    1
     6     7     6    1
     7     6     1    1
     8     1     2    1
     9     2     3    1
    10     1     4    1
    11     4     5    1
    12     1    13    1
    13    13    14    1
    14    14    15    3
    15    15    16    1
    16    16    17   ar
    17    17    18   ar
    18    18    19   ar
    19    19    20    1
    20    19    21   ar
    21    21    22   ar
    22    22    16   ar
@<TRIPOS>MOLECULE
*****
 22 22 0 0 0
SMALL
GASTEIGER

@<TRIPOS>ATOM
      1 N         141.6467  141.6930  169.8210 N.4     1  UNL1        0.3069
      2 C         140.8749  142.8315  169.2226 C.3     1  UNL1        0.1098
      3 C         140.5928  144.0577  170.0393 C.3     1  UNL1        0.0672
      4 C         142.4185  140.5545  170.4194 C.3     1  UNL1        0.1098
      5 C         142.4922  139.2392  169.7020 C.3     1  UNL1        0.0672
      6 C         140.3630  141.0547  170.2624 C.3     1  UNL1        0.1096
      7 C         139.2201  140.9250  169.2997 C.3     1  UNL1        0.0611
      8 C         139.0887  139.6939  168.4528 C.3     1  UNL1        0.0061
      9 C         139.4109  139.7525  166.9891 C.3     1  UNL1        0.0002
     10 C         140.2266  140.8879  166.4456 C.3     1  UNL1        0.0000
     11 C         140.2207  143.3370  165.5784 C.3     1  UNL1        0.0000
     12 C         139.5582  141.9955  165.6863 C.3     1  UNL1        0.0000
     13 C         142.9304  142.3312  169.3797 C.3     1  UNL1        0.1873
     14 C         143.2758  142.3907  167.9212 C.1     1  UNL1       -0.0258
     15 C         143.6212  142.4502  166.4627 C.1     1  UNL1       -0.0588
     16 C         143.9666  142.5097  165.0043 C.ar    1  UNL1        0.0419
     17 C         143.6725  143.7502  164.2139 C.ar    1  UNL1        0.0091
     18 C         144.0179  143.8097  162.7554 C.ar    1  UNL1        0.0120
     19 C         144.6574  142.6287  162.0873 C.ar    1  UNL1        0.0577
     20 CL        145.0027  142.6882  160.6288 Cl      1  UNL1       -0.0822
     21 C         144.9514  141.3882  162.8777 C.ar    1  UNL1        0.0120
     22 C         144.6060  141.3287  164.3362 C.ar    1  UNL1        0.0091
@<TRIPOS>UNITY_ATOM_ATTR
1 1
charge 1
@<TRIPOS>BOND
     1    11    12    1
     2    12    10    1
     3    10     9    1
     4     9     8    1
     5     8     7    1
     6     7     6    1
     7     6     1    1
     8     1     2    1
     9     2     3    1
    10     1     4    1
    11     4     5    1
    12     1    13    1
    13    13    14    1
    14    14    15    3
    15    15    16    1
    16    16    17   ar
    17    17    18   ar
    18    18    19   ar
    19    19    20    1
    20    19    21   ar
    21    21    22   ar
    22    22    16   ar
@<TRIPOS>MOLECULE
*****
 22 22 0 0 0
SMALL
GASTEIGER

@<TRIPOS>ATOM
      1 N         141.0404  141.0231  170.0855 N.4     1  UNL1        0.3069
      2 C         141.7983  139.8412  169.5576 C.3     1  UNL1        0.1098
      3 C         142.2490  138.7598  170.4945 C.3     1  UNL1        0.0672
      4 C         140.2825  142.2050  170.6134 C.3     1  UNL1        0.1098
      5 C         140.3231  143.5115  169.8776 C.3     1  UNL1        0.0672
      6 C         142.3336  141.6876  170.4546 C.3     1  UNL1        0.1096
      7 C         143.4841  141.6760  169.4922 C.3     1  UNL1        0.0611
      8 C         143.4752  142.5883  168.3016 C.3     1  UNL1        0.0061
      9 C         142.6709  142.2292  167.0875 C.3     1  UNL1        0.0002
     10 C         142.7903  140.8599  166.4869 C.3     1  UNL1        0.0000
     11 C         141.6352  141.5822  164.2746 C.3     1  UNL1        0.0000
     12 C         142.5573  140.6621  165.0183 C.3     1  UNL1        0.0000
     13 C         139.7472  140.3587  169.7165 C.3     1  UNL1        0.1873
     14 C         139.4510  140.0392  168.2812 C.1     1  UNL1       -0.0258
     15 C         139.1548  139.7197  166.8459 C.1     1  UNL1       -0.0588
     16 C         138.8585  139.4002  165.4106 C.ar    1  UNL1        0.0419
     17 C         139.2493  138.0680  164.8427 C.ar    1  UNL1        0.0091
     18 C         138.9531  137.7485  163.4073 C.ar    1  UNL1        0.0120
     19 C         138.2661  138.7611  162.5399 C.ar    1  UNL1        0.0577
     20 CL        137.9699  138.4416  161.1046 Cl      1  UNL1       -0.0822
     21 C         137.8753  140.0933  163.1078 C.ar    1  UNL1        0.0120
     22 C         138.1716  140.4128  164.5431 C.ar    1  UNL1        0.0091
@<TRIPOS>UNITY_ATOM_ATTR
1 1
charge 1
@<TRIPOS>BOND
     1    11    12    1
     2    12    10    1
     3    10     9    1
     4     9     8    1
     5     8     7    1
     6     7     6    1
     7     6     1    1
     8     1     2    1
     9     2     3    1
    10     1     4    1
    11     4     5    1
    12     1    13    1
    13    13    14    1
    14    14    15    3
    15    15    16    1
    16    16    17   ar
    17    17    18   ar
    18    18    19   ar
    19    19    20    1
    20    19    21   ar
    21    21    22   ar
    22    22    16   ar
@<TRIPOS>MOLECULE
*****
 22 22 0 0 0
SMALL
GASTEIGER

@<TRIPOS>ATOM
      1 N         141.5125  140.9793  168.8496 N.4     1  UNL1        0.3069
      2 C         142.6361  141.9468  168.6230 C.3     1  UNL1        0.1098
      3 C         143.6234  142.2198  169.7188 C.3     1  UNL1        0.0672
      4 C         140.3890  140.0117  169.0763 C.3     1  UNL1        0.1098
      5 C         139.2343  140.3954  169.9535 C.3     1  UNL1        0.0672
      6 C         142.5042  139.8654  169.0108 C.3     1  UNL1        0.1096
      7 C         142.8974  139.0340  167.8259 C.3     1  UNL1        0.0611
      8 C         142.4803  139.4498  166.4463 C.3     1  UNL1        0.0061
      9 C         143.4601  139.3777  165.3128 C.3     1  UNL1        0.0002
     10 C         144.1049  140.6303  164.7981 C.3     1  UNL1        0.0000
     11 C         144.3923  143.1560  165.3352 C.3     1  UNL1        0.0000
     12 C         143.5039  141.9678  165.1144 C.3     1  UNL1        0.0000
     13 C         140.5209  142.0931  168.6884 C.3     1  UNL1        0.1873
     14 C         140.3723  142.7791  167.3628 C.1     1  UNL1       -0.0258
     15 C         140.2238  143.4650  166.0371 C.1     1  UNL1       -0.0588
     16 C         140.0753  144.1510  164.7115 C.ar    1  UNL1        0.0419
     17 C         141.2699  144.7719  164.0503 C.ar    1  UNL1        0.0091
     18 C         141.1214  145.4579  162.7246 C.ar    1  UNL1        0.0120
     19 C         139.7782  145.5230  162.0601 C.ar    1  UNL1        0.0577
     20 CL        139.6296  146.2089  160.7345 Cl      1  UNL1       -0.0822
     21 C         138.5835  144.9021  162.7213 C.ar    1  UNL1        0.0120
     22 C         138.7321  144.2161  164.0470 C.ar    1  UNL1        0.0091
@<TRIPOS>UNITY_ATOM_ATTR
1 1
charge 1
@<TRIPOS>BOND
     1    11    12    1
     2    12    10    1
     3    10     9    1
     4     9     8    1
     5     8     7    1
     6     7     6    1
     7     6     1    1
     8     1     2    1
     9     2     3    1
    10     1     4    1
    11     4     5    1
    12     1    13    1
    13    13    14    1
    14    14    15    3
    15    15    16    1
    16    16    17   ar
    17    17    18   ar
    18    18    19   ar
    19    19    20    1
    20    19    21   ar
    21    21    22   ar
    22    22    16   ar
@<TRIPOS>MOLECULE
*****
 22 22 0 0 0
SMALL
GASTEIGER

@<TRIPOS>ATOM
      1 N         142.1681  141.1948  170.2133 N.4     1  UNL1        0.3069
      2 C         141.0881  140.6193  171.0807 C.3     1  UNL1        0.1098
      3 C         139.8979  139.9546  170.4547 C.3     1  UNL1        0.0672
      4 C         143.2481  141.7703  169.3460 C.3     1  UNL1        0.1098
      5 C         144.3008  142.6544  169.9463 C.3     1  UNL1        0.0672
      6 C         141.7767  142.5776  170.6434 C.3     1  UNL1        0.1096
      7 C         140.5707  143.2367  170.0424 C.3     1  UNL1        0.0611
      8 C         140.4744  143.4119  168.5557 C.3     1  UNL1        0.0061
      9 C         140.1191  142.2438  167.6844 C.3     1  UNL1        0.0002
     10 C         140.6122  142.1867  166.2689 C.3     1  UNL1        0.0000
     11 C         142.4193  142.9304  164.5568 C.3     1  UNL1        0.0000
     12 C         142.0340  142.5472  165.9549 C.3     1  UNL1        0.0000
     13 C         142.5595  139.8122  169.7833 C.3     1  UNL1        0.1873
     14 C         142.6179  139.4688  168.3243 C.1     1  UNL1       -0.0258
     15 C         142.6763  139.1255  166.8653 C.1     1  UNL1       -0.0588
     16 C         142.7346  138.7821  165.4063 C.ar    1  UNL1        0.0419
     17 C         143.8743  139.2751  164.5648 C.ar    1  UNL1        0.0091
     18 C         143.9327  138.9317  163.1058 C.ar    1  UNL1        0.0120
     19 C         142.8514  138.0955  162.4882 C.ar    1  UNL1        0.0577
     20 CL        142.9098  137.7521  161.0292 Cl      1  UNL1       -0.0822
     21 C         141.7117  137.6025  163.3297 C.ar    1  UNL1        0.0120
     22 C         141.6533  137.9459  164.7887 C.ar    1  UNL1        0.0091
@<TRIPOS>UNITY_ATOM_ATTR
1 1
charge 1
@<TRIPOS>BOND
     1    11    12    1
     2    12    10    1
     3    10     9    1
     4     9     8    1
     5     8     7    1
     6     7     6    1
     7     6     1    1
     8     1     2    1
     9     2     3    1
    10     1     4    1
    11     4     5    1
    12     1    13    1
    13    13    14    1
    14    14    15    3
    15    15    16    1
    16    16    17   ar
    17    17    18   ar
    18    18    19   ar
    19    19    20    1
    20    19    21   ar
    21    21    22   ar
    22    22    16   ar
@<TRIPOS>MOLECULE
*****
 22 22 0 0 0
SMALL
GASTEIGER

@<TRIPOS>ATOM
      1 N         141.8992  140.7675  170.2930 N.4     1  UNL1        0.3069
      2 C         143.2100  141.2079  169.7119 C.3     1  UNL1        0.1098
      3 C         143.7700  142.5552  170.0601 C.3     1  UNL1        0.0672
      4 C         140.5884  140.3271  170.8742 C.3     1  UNL1        0.1098
      5 C         139.4165  140.0721  169.9733 C.3     1  UNL1        0.0672
      6 C         141.7027  142.1321  170.8840 C.3     1  UNL1        0.1096
      7 C         140.4802  142.9299  170.5391 C.3     1  UNL1        0.0611
      8 C         140.4433  143.7372  169.2754 C.3     1  UNL1        0.0061
      9 C         140.1048  143.0757  167.9724 C.3     1  UNL1        0.0002
     10 C         141.1973  142.5234  167.1056 C.3     1  UNL1        0.0000
     11 C         141.8272  142.4160  164.5873 C.3     1  UNL1        0.0000
     12 C         140.8907  142.0735  165.7079 C.3     1  UNL1        0.0000
     13 C         142.0957  139.4029  169.7021 C.3     1  UNL1        0.1873
     14 C         142.4197  139.2562  168.2448 C.1     1  UNL1       -0.0258
     15 C         142.7437  139.1095  166.7876 C.1     1  UNL1       -0.0588
     16 C         143.0677  138.9628  165.3304 C.ar    1  UNL1        0.0419
     17 C         142.1362  138.2105  164.4270 C.ar    1  UNL1        0.0091
     18 C         142.4602  138.0637  162.9698 C.ar    1  UNL1        0.0120
     19 C         143.7157  138.6694  162.4159 C.ar    1  UNL1        0.0577
     20 CL        144.0397  138.5227  160.9587 Cl      1  UNL1       -0.0822
     21 C         144.6473  139.4217  163.3193 C.ar    1  UNL1        0.0120
     22 C         144.3233  139.5684  164.7766 C.ar    1  UNL1        0.0091
@<TRIPOS>UNITY_ATOM_ATTR
1 1
charge 1
@<TRIPOS>BOND
     1    11    12    1
     2    12    10    1
     3    10     9    1
     4     9     8    1
     5     8     7    1
     6     7     6    1
     7     6     1    1
     8     1     2    1
     9     2     3    1
    10     1     4    1
    11     4     5    1
    12     1    13    1
    13    13    14    1
    14    14    15    3
    15    15    16    1
    16    16    17   ar
    17    17    18   ar
    18    18    19   ar
    19    19    20    1
    20    19    21   ar
    21    21    22   ar
    22    22    16   ar
@<TRIPOS>MOLECULE
*****
 22 22 0 0 0
SMALL
GASTEIGER

@<TRIPOS>ATOM
      1 N         141.3881  140.9810  168.4687 N.4     1  UNL1        0.3069
      2 C         140.1048  140.2187  168.6166 C.3     1  UNL1        0.1098
      3 C         139.1859  140.5126  169.7653 C.3     1  UNL1        0.0672
      4 C         142.6715  141.7432  168.3208 C.3     1  UNL1        0.1098
      5 C         143.3854  142.2532  169.5375 C.3     1  UNL1        0.0672
      6 C         142.1647  139.7232  168.7240 C.3     1  UNL1        0.1096
      7 C         142.9471  139.0866  167.6139 C.3     1  UNL1        0.0611
      8 C         142.3666  139.0144  166.2326 C.3     1  UNL1        0.0061
      9 C         143.1540  139.5209  165.0607 C.3     1  UNL1        0.0002
     10 C         143.1200  140.9784  164.7079 C.3     1  UNL1        0.0000
     11 C         144.2954  143.2141  165.3163 C.3     1  UNL1        0.0000
     12 C         144.3682  141.8041  164.8099 C.3     1  UNL1        0.0000
     13 C         140.6117  142.2387  168.2135 C.3     1  UNL1        0.1873
     14 C         140.5488  142.8135  166.8294 C.1     1  UNL1       -0.0258
     15 C         140.4860  143.3883  165.4454 C.1     1  UNL1       -0.0588
     16 C         140.4232  143.9631  164.0613 C.ar    1  UNL1        0.0419
     17 C         139.3027  144.8855  163.6824 C.ar    1  UNL1        0.0091
     18 C         139.2399  145.4603  162.2983 C.ar    1  UNL1        0.0120
     19 C         140.2976  145.1128  161.2932 C.ar    1  UNL1        0.0577
     20 CL        140.2348  145.6876  159.9091 Cl      1  UNL1       -0.0822
     21 C         141.4182  144.1905  161.6721 C.ar    1  UNL1        0.0120
     22 C         141.4810  143.6157  163.0561 C.ar    1  UNL1        0.0091
@<TRIPOS>UNITY_ATOM_ATTR
1 1
charge 1
@<TRIPOS>BOND
     1    11    12    1
     2    12    10    1
     3    10     9    1
     4     9     8    1
     5     8     7    1
     6     7     6    1
     7     6     1    1
     8     1     2    1
     9     2     3    1
    10     1     4    1
    11     4     5    1
    12     1    13    1
    13    13    14    1
    14    14    15    3
    15    15    16    1
    16    16    17   ar
    17    17    18   ar
    18    18    19   ar
    19    19    20    1
    20    19    21   ar
    21    21    22   ar
    22    22    16   ar
@<TRIPOS>MOLECULE
*****
 22 22 0 0 0
SMALL
GASTEIGER

@<TRIPOS>ATOM
      1 N         141.4744  141.1657  168.9124 N.4     1  UNL1        0.3069
      2 C         140.3584  140.1730  169.0495 C.3     1  UNL1        0.1098
      3 C         139.2143  140.4542  169.9779 C.3     1  UNL1        0.0672
      4 C         142.5905  142.1585  168.7753 C.3     1  UNL1        0.1098
      5 C         143.4271  142.5159  169.9679 C.3     1  UNL1        0.0672
      6 C         142.4698  140.0918  169.2381 C.3     1  UNL1        0.1096
      7 C         142.6909  138.9587  168.2805 C.3     1  UNL1        0.0611
      8 C         142.9720  139.2426  166.8346 C.3     1  UNL1        0.0061
      9 C         142.0225  138.7619  165.7776 C.3     1  UNL1        0.0002
     10 C         140.7562  139.5189  165.5066 C.3     1  UNL1        0.0000
     11 C         138.2824  139.1246  166.1957 C.3     1  UNL1        0.0000
     12 C         139.4623  138.7795  165.3362 C.3     1  UNL1        0.0000
     13 C         140.4792  142.2396  168.5866 C.3     1  UNL1        0.1873
     14 C         140.3955  142.7868  167.1925 C.1     1  UNL1       -0.0258
     15 C         140.3119  143.3339  165.7983 C.1     1  UNL1       -0.0588
     16 C         140.2282  143.8811  164.4042 C.ar    1  UNL1        0.0419
     17 C         141.2290  144.8953  163.9352 C.ar    1  UNL1        0.0091
     18 C         141.1453  145.4424  162.5411 C.ar    1  UNL1        0.0120
     19 C         140.0609  144.9754  161.6159 C.ar    1  UNL1        0.0577
     20 CL        139.9772  145.5226  160.2218 Cl      1  UNL1       -0.0822
     21 C         139.0602  143.9613  162.0849 C.ar    1  UNL1        0.0120
     22 C         139.1438  143.4141  163.4791 C.ar    1  UNL1        0.0091
@<TRIPOS>UNITY_ATOM_ATTR
1 1
charge 1
@<TRIPOS>BOND
     1    11    12    1
     2    12    10    1
     3    10     9    1
     4     9     8    1
     5     8     7    1
     6     7     6    1
     7     6     1    1
     8     1     2    1
     9     2     3    1
    10     1     4    1
    11     4     5    1
    12     1    13    1
    13    13    14    1
    14    14    15    3
    15    15    16    1
    16    16    17   ar
    17    17    18   ar
    18    18    19   ar
    19    19    20    1
    20    19    21   ar
    21    21    22   ar
    22    22    16   ar
@<TRIPOS>MOLECULE
*****
 22 22 0 0 0
SMALL
GASTEIGER

@<TRIPOS>ATOM
      1 N         143.2128  144.2116  163.2483 N.4     1  UNL1        0.3069
      2 C         144.0990  144.7800  164.3168 C.3     1  UNL1        0.1098
      3 C         144.4908  143.9363  165.4936 C.3     1  UNL1        0.0672
      4 C         142.3267  143.6433  162.1798 C.3     1  UNL1        0.1098
      5 C         141.4732  144.5555  161.3496 C.3     1  UNL1        0.0672
      6 C         144.4165  143.9360  162.3966 C.3     1  UNL1        0.1096
      7 C         144.8146  142.5214  162.0959 C.3     1  UNL1        0.0611
      8 C         145.6392  141.7485  163.0823 C.3     1  UNL1        0.0061
      9 C         145.1024  140.4811  163.6785 C.3     1  UNL1        0.0002
     10 C         143.8019  140.4959  164.4258 C.3     1  UNL1        0.0000
     11 C         142.1497  139.8571  162.5253 C.3     1  UNL1        0.0000
     12 C         142.6432  139.6820  163.9309 C.3     1  UNL1        0.0000
     13 C         142.0092  144.4872  164.0999 C.3     1  UNL1        0.1873
     14 C         141.2067  143.3481  164.6553 C.1     1  UNL1       -0.0258
     15 C         140.4042  142.2090  165.2107 C.1     1  UNL1       -0.0588
     16 C         139.6017  141.0699  165.7660 C.ar    1  UNL1        0.0419
     17 C         139.6759  140.7427  167.2280 C.ar    1  UNL1        0.0091
     18 C         138.8734  139.6036  167.7834 C.ar    1  UNL1        0.0120
     19 C         137.9967  138.7917  166.8768 C.ar    1  UNL1        0.0577
     20 CL        137.1941  137.6526  167.4321 Cl      1  UNL1       -0.0822
     21 C         137.9224  139.1189  165.4148 C.ar    1  UNL1        0.0120
     22 C         138.7249  140.2580  164.8594 C.ar    1  UNL1        0.0091
@<TRIPOS>UNITY_ATOM_ATTR
1 1
charge 1
@<TRIPOS>BOND
     1    11    12    1
     2    12    10    1
     3    10     9    1
     4     9     8    1
     5     8     7    1
     6     7     6    1
     7     6     1    1
     8     1     2    1
     9     2     3    1
    10     1     4    1
    11     4     5    1
    12     1    13    1
    13    13    14    1
    14    14    15    3
    15    15    16    1
    16    16    17   ar
    17    17    18   ar
    18    18    19   ar
    19    19    20    1
    20    19    21   ar
    21    21    22   ar
    22    22    16   ar
