@<TRIPOS>MOLECULE
*****
 30 34 0 0 0
SMALL
GASTEIGER

@<TRIPOS>ATOM
      1 C         141.6608  138.8079  161.6169 C.ar    1  UNL1        0.0681
      2 C         140.9634  139.3358  160.3984 C.ar    1  UNL1        0.0208
      3 C         141.4401  138.9421  159.0318 C.ar    1  UNL1        0.0384
      4 C         142.6142  138.0205  158.8837 C.ar    1  UNL1        0.1385
      5 C         143.3117  137.4926  160.1022 C.ar    1  UNL1        0.0384
      6 C         142.8350  137.8863  161.4689 C.ar    1  UNL1        0.0208
      7 C         143.0041  141.0530  163.0850 C.3     1  UNL1        0.0723
      8 C         141.8557  140.3242  163.7176 C.ar    1  UNL1        0.1268
      9 N         141.3790  140.7180  165.0842 N.ar    1  UNL1       -0.2310
     10 C         140.2307  139.9892  165.7169 C.ar    1  UNL1        0.0977
     11 C         139.7540  140.3830  167.0835 C.ar    1  UNL1        0.0754
     12 CL        140.4256  141.5055  167.8175 Cl      1  UNL1       -0.0807
     13 C         138.6057  139.6542  167.7161 C.ar    1  UNL1        0.0129
     14 C         137.9341  138.5316  166.9821 C.ar    1  UNL1        0.0011
     15 C         138.4108  138.1378  165.6155 C.ar    1  UNL1        0.0063
     16 C         139.5590  138.8666  164.9829 C.ar    1  UNL1        0.0750
     17 C         140.0358  138.4728  163.6162 C.ar    1  UNL1        0.2670
     18 O         139.3642  137.3503  162.8822 O.2     1  UNL1       -0.2665
     19 N         141.1841  139.2016  162.9836 N.ar    1  UNL1       -0.2626
     20 O         143.0910  137.6267  157.5170 O.3     1  UNL1       -0.4791
     21 C         142.7152  136.2908  156.9477 C.3     1  UNL1        0.1687
     22 C         141.6318  136.1936  155.9147 C.3     1  UNL1        0.0609
     23 C         141.2560  134.8577  155.3454 C.3     1  UNL1        0.0758
     24 N         141.9636  133.6190  155.8090 N.3     1  UNL1       -0.2737
     25 C         143.0470  133.7162  156.8418 C.3     1  UNL1        0.0758
     26 C         143.4228  135.0521  157.4112 C.3     1  UNL1        0.0609
     27 C         141.5878  132.2831  155.2396 C.3     1  UNL1        0.0575
     28 C         141.8929  130.8569  155.5902 C.3     1  UNL1        0.0160
     29 C         141.0564  130.3939  154.4344 C.3     1  UNL1        0.0028
     30 C         140.7513  131.8200  154.0839 C.3     1  UNL1        0.0160
@<TRIPOS>BOND
     1     7     8    1
     2     8     9   ar
     3     9    10   ar
     4    10    11   ar
     5    11    12    1
     6    11    13   ar
     7    13    14   ar
     8    14    15   ar
     9    15    16   ar
    10    16    17   ar
    11    17    18    2
    12    17    19   ar
    13    19     1    1
    14     1     2   ar
    15     2     3   ar
    16     3     4   ar
    17     4    20    1
    18    20    21    1
    19    21    22    1
    20    22    23    1
    21    23    24    1
    22    24    27    1
    23    27    28    1
    24    28    29    1
    25    29    30    1
    26    24    25    1
    27    25    26    1
    28     4     5   ar
    29     5     6   ar
    30    19     8   ar
    31     6     1   ar
    32    16    10   ar
    33    26    21    1
    34    30    27    1
@<TRIPOS>MOLECULE
*****
 30 34 0 0 0
SMALL
GASTEIGER

@<TRIPOS>ATOM
      1 C         140.4693  139.2653  163.8537 C.ar    1  UNL1        0.0681
      2 C         139.7047  139.8904  162.7247 C.ar    1  UNL1        0.0208
      3 C         140.0087  139.5029  161.3079 C.ar    1  UNL1        0.0384
      4 C         141.0772  138.4903  161.0201 C.ar    1  UNL1        0.1385
      5 C         141.8418  137.8652  162.1491 C.ar    1  UNL1        0.0384
      6 C         141.5378  138.2527  163.5659 C.ar    1  UNL1        0.0208
      7 C         138.5626  137.6190  165.4829 C.3     1  UNL1        0.0723
      8 C         139.2120  138.8297  166.0852 C.ar    1  UNL1        0.1268
      9 N         138.9080  139.2172  167.5020 N.ar    1  UNL1       -0.2310
     10 C         139.5574  140.4279  168.1043 C.ar    1  UNL1        0.0977
     11 C         139.2534  140.8154  169.5211 C.ar    1  UNL1        0.0754
     12 CL        138.3000  139.9922  170.3357 Cl      1  UNL1       -0.0807
     13 C         139.9027  142.0260  170.1233 C.ar    1  UNL1        0.0129
     14 C         140.8561  142.8491  169.3087 C.ar    1  UNL1        0.0011
     15 C         141.1601  142.4616  167.8919 C.ar    1  UNL1        0.0063
     16 C         140.5107  141.2510  167.2897 C.ar    1  UNL1        0.0750
     17 C         140.8147  140.8634  165.8728 C.ar    1  UNL1        0.2670
     18 O         141.7681  141.6866  165.0582 O.2     1  UNL1       -0.2665
     19 N         140.1653  139.6528  165.2706 N.ar    1  UNL1       -0.2626
     20 O         141.3812  138.1027  159.6032 O.3     1  UNL1       -0.4791
     21 C         142.4215  138.8543  158.8268 C.3     1  UNL1        0.1687
     22 C         143.1749  139.9779  159.4750 C.3     1  UNL1        0.0609
     23 C         144.2153  140.7295  158.6987 C.3     1  UNL1        0.0758
     24 N         144.5022  140.3576  157.2740 N.3     1  UNL1       -0.2737
     25 C         143.7488  139.2341  156.6259 C.3     1  UNL1        0.0758
     26 C         142.7084  138.4825  157.4023 C.3     1  UNL1        0.0609
     27 C         145.5425  141.1092  156.4977 C.3     1  UNL1        0.0575
     28 C         146.0841  141.0335  155.1008 C.3     1  UNL1        0.0160
     29 C         147.0138  142.1721  155.3997 C.3     1  UNL1        0.0028
     30 C         146.4723  142.2477  156.7964 C.3     1  UNL1        0.0160
@<TRIPOS>BOND
     1     7     8    1
     2     8     9   ar
     3     9    10   ar
     4    10    11   ar
     5    11    12    1
     6    11    13   ar
     7    13    14   ar
     8    14    15   ar
     9    15    16   ar
    10    16    17   ar
    11    17    18    2
    12    17    19   ar
    13    19     1    1
    14     1     2   ar
    15     2     3   ar
    16     3     4   ar
    17     4    20    1
    18    20    21    1
    19    21    22    1
    20    22    23    1
    21    23    24    1
    22    24    27    1
    23    27    28    1
    24    28    29    1
    25    29    30    1
    26    24    25    1
    27    25    26    1
    28     4     5   ar
    29     5     6   ar
    30    19     8   ar
    31     6     1   ar
    32    16    10   ar
    33    26    21    1
    34    30    27    1
@<TRIPOS>MOLECULE
*****
 30 34 0 0 0
SMALL
GASTEIGER

@<TRIPOS>ATOM
      1 C         139.0463  140.6304  164.3982 C.ar    1  UNL1        0.0681
      2 C         140.0132  139.9700  163.4607 C.ar    1  UNL1        0.0208
      3 C         139.7276  139.9383  161.9885 C.ar    1  UNL1        0.0384
      4 C         138.4751  140.5669  161.4538 C.ar    1  UNL1        0.1385
      5 C         137.5081  141.2273  162.3914 C.ar    1  UNL1        0.0384
      6 C         137.7937  141.2591  163.8635 C.ar    1  UNL1        0.0208
      7 C         138.1978  138.3403  166.1404 C.3     1  UNL1        0.0723
      8 C         138.9077  139.5171  166.7416 C.ar    1  UNL1        0.1268
      9 N         139.1933  139.5488  168.2138 N.ar    1  UNL1       -0.2310
     10 C         139.9032  140.7255  168.8149 C.ar    1  UNL1        0.0977
     11 C         140.1888  140.7572  170.2871 C.ar    1  UNL1        0.0754
     12 CL        139.7646  139.6122  171.1582 Cl      1  UNL1       -0.0807
     13 C         140.8987  141.9340  170.8882 C.ar    1  UNL1        0.0129
     14 C         141.3229  143.0790  170.0171 C.ar    1  UNL1        0.0011
     15 C         141.0373  143.0473  168.5449 C.ar    1  UNL1        0.0063
     16 C         140.3275  141.8706  167.9438 C.ar    1  UNL1        0.0750
     17 C         140.0418  141.8389  166.4715 C.ar    1  UNL1        0.2670
     18 O         140.4661  142.9839  165.6004 O.2     1  UNL1       -0.2665
     19 N         139.3319  140.6621  165.8705 N.ar    1  UNL1       -0.2626
     20 O         138.1894  140.5352  159.9816 O.3     1  UNL1       -0.4791
     21 C         138.5675  141.7027  159.1190 C.3     1  UNL1        0.1687
     22 C         138.0342  141.8058  157.7207 C.3     1  UNL1        0.0609
     23 C         138.4122  142.9733  156.8581 C.3     1  UNL1        0.0758
     24 N         139.3235  144.0376  157.3937 N.3     1  UNL1       -0.2737
     25 C         139.8567  143.9344  158.7919 C.3     1  UNL1        0.0758
     26 C         139.4787  142.7670  159.6545 C.3     1  UNL1        0.0609
     27 C         139.7016  145.2051  156.5311 C.3     1  UNL1        0.0575
     28 C         140.9792  145.9304  156.2282 C.3     1  UNL1        0.0160
     29 C         140.2362  146.8561  155.3111 C.3     1  UNL1        0.0028
     30 C         138.9587  146.1308  155.6140 C.3     1  UNL1        0.0160
@<TRIPOS>BOND
     1     7     8    1
     2     8     9   ar
     3     9    10   ar
     4    10    11   ar
     5    11    12    1
     6    11    13   ar
     7    13    14   ar
     8    14    15   ar
     9    15    16   ar
    10    16    17   ar
    11    17    18    2
    12    17    19   ar
    13    19     1    1
    14     1     2   ar
    15     2     3   ar
    16     3     4   ar
    17     4    20    1
    18    20    21    1
    19    21    22    1
    20    22    23    1
    21    23    24    1
    22    24    27    1
    23    27    28    1
    24    28    29    1
    25    29    30    1
    26    24    25    1
    27    25    26    1
    28     4     5   ar
    29     5     6   ar
    30    19     8   ar
    31     6     1   ar
    32    16    10   ar
    33    26    21    1
    34    30    27    1
@<TRIPOS>MOLECULE
*****
 30 34 0 0 0
SMALL
GASTEIGER

@<TRIPOS>ATOM
      1 C         140.2409  138.9142  160.3935 C.ar    1  UNL1        0.0681
      2 C         139.3901  138.0071  161.2322 C.ar    1  UNL1        0.0208
      3 C         138.7107  138.5387  162.4593 C.ar    1  UNL1        0.0384
      4 C         138.8821  139.9774  162.8477 C.ar    1  UNL1        0.1385
      5 C         139.7329  140.8844  162.0090 C.ar    1  UNL1        0.0384
      6 C         140.4124  140.3528  160.7819 C.ar    1  UNL1        0.0208
      7 C         142.9912  137.7327  160.5947 C.3     1  UNL1        0.0723
      8 C         142.2955  137.7918  159.2670 C.ar    1  UNL1        0.1268
      9 N         142.9750  137.2601  158.0400 N.ar    1  UNL1       -0.2310
     10 C         142.2793  137.3192  156.7123 C.ar    1  UNL1        0.0977
     11 C         142.9588  136.7875  155.4853 C.ar    1  UNL1        0.0754
     12 CL        144.3339  136.1968  155.5858 Cl      1  UNL1       -0.0807
     13 C         142.2631  136.8466  154.1577 C.ar    1  UNL1        0.0129
     14 C         140.8880  137.4373  154.0571 C.ar    1  UNL1        0.0011
     15 C         140.2085  137.9689  155.2841 C.ar    1  UNL1        0.0063
     16 C         140.9042  137.9099  156.6117 C.ar    1  UNL1        0.0750
     17 C         140.2247  138.4416  157.8388 C.ar    1  UNL1        0.2670
     18 O         138.8496  139.0323  157.7383 O.2     1  UNL1       -0.2665
     19 N         140.9204  138.3825  159.1664 N.ar    1  UNL1       -0.2626
     20 O         138.2026  140.5091  164.0748 O.3     1  UNL1       -0.4791
     21 C         139.0209  140.9905  165.2361 C.3     1  UNL1        0.1687
     22 C         139.3382  140.0583  166.3677 C.3     1  UNL1        0.0609
     23 C         140.1565  140.5398  167.5290 C.3     1  UNL1        0.0758
     24 N         140.6576  141.9533  167.5586 N.3     1  UNL1       -0.2737
     25 C         140.3403  142.8854  166.4271 C.3     1  UNL1        0.0758
     26 C         139.5220  142.4040  165.2658 C.3     1  UNL1        0.0609
     27 C         141.4759  142.4348  168.7199 C.3     1  UNL1        0.0575
     28 C         142.9097  142.2944  169.1379 C.3     1  UNL1        0.0160
     29 C         142.6331  143.1156  170.3622 C.3     1  UNL1        0.0028
     30 C         141.1995  143.2560  169.9443 C.3     1  UNL1        0.0160
@<TRIPOS>BOND
     1     7     8    1
     2     8     9   ar
     3     9    10   ar
     4    10    11   ar
     5    11    12    1
     6    11    13   ar
     7    13    14   ar
     8    14    15   ar
     9    15    16   ar
    10    16    17   ar
    11    17    18    2
    12    17    19   ar
    13    19     1    1
    14     1     2   ar
    15     2     3   ar
    16     3     4   ar
    17     4    20    1
    18    20    21    1
    19    21    22    1
    20    22    23    1
    21    23    24    1
    22    24    27    1
    23    27    28    1
    24    28    29    1
    25    29    30    1
    26    24    25    1
    27    25    26    1
    28     4     5   ar
    29     5     6   ar
    30    19     8   ar
    31     6     1   ar
    32    16    10   ar
    33    26    21    1
    34    30    27    1
@<TRIPOS>MOLECULE
*****
 30 34 0 0 0
SMALL
GASTEIGER

@<TRIPOS>ATOM
      1 C         140.6450  139.8727  162.8904 C.ar    1  UNL1        0.0681
      2 C         140.2434  138.6425  162.1320 C.ar    1  UNL1        0.0208
      3 C         140.3504  138.6152  160.6361 C.ar    1  UNL1        0.0384
      4 C         140.8590  139.8183  159.8986 C.ar    1  UNL1        0.1385
      5 C         141.2606  141.0485  160.6570 C.ar    1  UNL1        0.0384
      6 C         141.1536  141.0758  162.1529 C.ar    1  UNL1        0.0208
      7 C         138.0469  140.6129  164.1951 C.3     1  UNL1        0.0723
      8 C         139.2389  140.2700  165.0387 C.ar    1  UNL1        0.1268
      9 N         139.1318  140.2972  166.5346 N.ar    1  UNL1       -0.2310
     10 C         140.3238  139.9543  167.3783 C.ar    1  UNL1        0.0977
     11 C         140.2167  139.9815  168.8741 C.ar    1  UNL1        0.0754
     12 CL        138.9177  140.3516  169.5265 Cl      1  UNL1       -0.0807
     13 C         141.4087  139.6386  169.7177 C.ar    1  UNL1        0.0129
     14 C         142.7077  139.2685  169.0654 C.ar    1  UNL1        0.0011
     15 C         142.8148  139.2413  167.5695 C.ar    1  UNL1        0.0063
     16 C         141.6229  139.5842  166.7259 C.ar    1  UNL1        0.0750
     17 C         141.7299  139.5570  165.2299 C.ar    1  UNL1        0.2670
     18 O         143.0289  139.1869  164.5776 O.2     1  UNL1       -0.2665
     19 N         140.5380  139.8999  164.3864 N.ar    1  UNL1       -0.2626
     20 O         140.9661  139.7911  158.4026 O.3     1  UNL1       -0.4791
     21 C         141.2541  138.5004  157.6947 C.3     1  UNL1        0.1687
     22 C         140.2441  137.9226  156.7481 C.3     1  UNL1        0.0609
     23 C         140.5321  136.6319  156.0401 C.3     1  UNL1        0.0758
     24 N         141.8302  135.9191  156.2788 N.3     1  UNL1       -0.2737
     25 C         142.8402  136.4969  157.2253 C.3     1  UNL1        0.0758
     26 C         142.5522  137.7876  157.9332 C.3     1  UNL1        0.0609
     27 C         142.1183  134.6284  155.5708 C.3     1  UNL1        0.0575
     28 C         142.5028  134.2491  154.1714 C.3     1  UNL1        0.0160
     29 C         142.5257  132.8031  154.5696 C.3     1  UNL1        0.0028
     30 C         142.1412  133.1824  155.9690 C.3     1  UNL1        0.0160
@<TRIPOS>BOND
     1     7     8    1
     2     8     9   ar
     3     9    10   ar
     4    10    11   ar
     5    11    12    1
     6    11    13   ar
     7    13    14   ar
     8    14    15   ar
     9    15    16   ar
    10    16    17   ar
    11    17    18    2
    12    17    19   ar
    13    19     1    1
    14     1     2   ar
    15     2     3   ar
    16     3     4   ar
    17     4    20    1
    18    20    21    1
    19    21    22    1
    20    22    23    1
    21    23    24    1
    22    24    27    1
    23    27    28    1
    24    28    29    1
    25    29    30    1
    26    24    25    1
    27    25    26    1
    28     4     5   ar
    29     5     6   ar
    30    19     8   ar
    31     6     1   ar
    32    16    10   ar
    33    26    21    1
    34    30    27    1
@<TRIPOS>MOLECULE
*****
 30 34 0 0 0
SMALL
GASTEIGER

@<TRIPOS>ATOM
      1 C         141.4139  138.8228  161.6883 C.ar    1  UNL1        0.0681
      2 C         141.1414  139.8575  160.6371 C.ar    1  UNL1        0.0208
      3 C         141.7784  139.7383  159.2844 C.ar    1  UNL1        0.0384
      4 C         142.6880  138.5843  158.9829 C.ar    1  UNL1        0.1385
      5 C         142.9606  137.5496  160.0341 C.ar    1  UNL1        0.0384
      6 C         142.3236  137.6688  161.3868 C.ar    1  UNL1        0.0208
      7 C         138.6248  137.8088  162.1274 C.3     1  UNL1        0.0723
      8 C         139.3823  138.4350  163.2606 C.ar    1  UNL1        0.1268
      9 N         138.7452  138.5543  164.6133 N.ar    1  UNL1       -0.2310
     10 C         139.5026  139.1805  165.7466 C.ar    1  UNL1        0.0977
     11 C         138.8655  139.2998  167.0993 C.ar    1  UNL1        0.0754
     12 CL        137.4709  138.7928  167.3188 Cl      1  UNL1       -0.0807
     13 C         139.6229  139.9260  168.2324 C.ar    1  UNL1        0.0129
     14 C         141.0175  140.4330  168.0129 C.ar    1  UNL1        0.0011
     15 C         141.6546  140.3137  166.6602 C.ar    1  UNL1        0.0063
     16 C         140.8972  139.6875  165.5270 C.ar    1  UNL1        0.0750
     17 C         141.5343  139.5683  164.1743 C.ar    1  UNL1        0.2670
     18 O         142.9288  140.0752  163.9547 O.2     1  UNL1       -0.2665
     19 N         140.7768  138.9420  163.0411 N.ar    1  UNL1       -0.2626
     20 O         143.3252  138.4651  157.6301 O.3     1  UNL1       -0.4791
     21 C         142.9282  137.3489  156.7099 C.3     1  UNL1        0.1687
     22 C         143.9788  136.5899  155.9548 C.3     1  UNL1        0.0609
     23 C         143.5819  135.4738  155.0346 C.3     1  UNL1        0.0758
     24 N         142.1343  135.1167  154.8696 N.3     1  UNL1       -0.2737
     25 C         141.0838  135.8757  155.6248 C.3     1  UNL1        0.0758
     26 C         141.4807  136.9918  156.5449 C.3     1  UNL1        0.0609
     27 C         141.7373  134.0006  153.9494 C.3     1  UNL1        0.0575
     28 C         141.6997  133.8153  152.4613 C.3     1  UNL1        0.0160
     29 C         141.1760  132.4222  152.6481 C.3     1  UNL1        0.0028
     30 C         141.2136  132.6074  154.1361 C.3     1  UNL1        0.0160
@<TRIPOS>BOND
     1     7     8    1
     2     8     9   ar
     3     9    10   ar
     4    10    11   ar
     5    11    12    1
     6    11    13   ar
     7    13    14   ar
     8    14    15   ar
     9    15    16   ar
    10    16    17   ar
    11    17    18    2
    12    17    19   ar
    13    19     1    1
    14     1     2   ar
    15     2     3   ar
    16     3     4   ar
    17     4    20    1
    18    20    21    1
    19    21    22    1
    20    22    23    1
    21    23    24    1
    22    24    27    1
    23    27    28    1
    24    28    29    1
    25    29    30    1
    26    24    25    1
    27    25    26    1
    28     4     5   ar
    29     5     6   ar
    30    19     8   ar
    31     6     1   ar
    32    16    10   ar
    33    26    21    1
    34    30    27    1
@<TRIPOS>MOLECULE
*****
 30 34 0 0 0
SMALL
GASTEIGER

@<TRIPOS>ATOM
      1 C         140.6101  139.7417  163.2896 C.ar    1  UNL1        0.0681
      2 C         140.2582  138.4656  162.5841 C.ar    1  UNL1        0.0208
      3 C         140.3744  138.3772  161.0913 C.ar    1  UNL1        0.0384
      4 C         140.8425  139.5650  160.3039 C.ar    1  UNL1        0.1385
      5 C         141.1944  140.8411  161.0093 C.ar    1  UNL1        0.0384
      6 C         141.0782  140.9295  162.5021 C.ar    1  UNL1        0.0208
      7 C         138.0130  140.5643  164.5459 C.3     1  UNL1        0.0723
      8 C         139.1954  140.2414  165.4106 C.ar    1  UNL1        0.1268
      9 N         139.0791  140.3297  166.9035 N.ar    1  UNL1       -0.2310
     10 C         140.2615  140.0068  167.7683 C.ar    1  UNL1        0.0977
     11 C         140.1452  140.0951  169.2611 C.ar    1  UNL1        0.0754
     12 CL        138.8467  140.5064  169.8893 Cl      1  UNL1       -0.0807
     13 C         141.3276  139.7722  170.1258 C.ar    1  UNL1        0.0129
     14 C         142.6261  139.3609  169.4977 C.ar    1  UNL1        0.0011
     15 C         142.7424  139.2725  168.0048 C.ar    1  UNL1        0.0063
     16 C         141.5601  139.5955  167.1401 C.ar    1  UNL1        0.0750
     17 C         141.6762  139.5071  165.6472 C.ar    1  UNL1        0.2670
     18 O         142.9748  139.0958  165.0191 O.2     1  UNL1       -0.2665
     19 N         140.4939  139.8301  164.7825 N.ar    1  UNL1       -0.2626
     20 O         140.9587  139.4766  158.8109 O.3     1  UNL1       -0.4791
     21 C         139.7621  139.7482  157.9482 C.3     1  UNL1        0.1687
     22 C         139.7009  139.1954  156.5551 C.3     1  UNL1        0.0609
     23 C         138.5043  139.4671  155.6923 C.3     1  UNL1        0.0758
     24 N         137.3689  140.2915  156.2227 N.3     1  UNL1       -0.2737
     25 C         137.4301  140.8443  157.6157 C.3     1  UNL1        0.0758
     26 C         138.6267  140.5726  158.4785 C.3     1  UNL1        0.0609
     27 C         136.1723  140.5632  155.3599 C.3     1  UNL1        0.0575
     28 C         134.6865  140.4910  155.5537 C.3     1  UNL1        0.0160
     29 C         134.4800  140.9473  154.1398 C.3     1  UNL1        0.0028
     30 C         135.9656  141.0194  153.9460 C.3     1  UNL1        0.0160
@<TRIPOS>BOND
     1     7     8    1
     2     8     9   ar
     3     9    10   ar
     4    10    11   ar
     5    11    12    1
     6    11    13   ar
     7    13    14   ar
     8    14    15   ar
     9    15    16   ar
    10    16    17   ar
    11    17    18    2
    12    17    19   ar
    13    19     1    1
    14     1     2   ar
    15     2     3   ar
    16     3     4   ar
    17     4    20    1
    18    20    21    1
    19    21    22    1
    20    22    23    1
    21    23    24    1
    22    24    27    1
    23    27    28    1
    24    28    29    1
    25    29    30    1
    26    24    25    1
    27    25    26    1
    28     4     5   ar
    29     5     6   ar
    30    19     8   ar
    31     6     1   ar
    32    16    10   ar
    33    26    21    1
    34    30    27    1
@<TRIPOS>MOLECULE
*****
 30 34 0 0 0
SMALL
GASTEIGER

@<TRIPOS>ATOM
      1 C         142.3815  138.7493  159.3878 C.ar    1  UNL1        0.0681
      2 C         142.8298  137.6630  160.3201 C.ar    1  UNL1        0.0208
      3 C         143.6290  138.0059  161.5422 C.ar    1  UNL1        0.0384
      4 C         143.9799  139.4352  161.8321 C.ar    1  UNL1        0.1385
      5 C         143.5316  140.5215  160.8998 C.ar    1  UNL1        0.0384
      6 C         142.7324  140.1785  159.6777 C.ar    1  UNL1        0.0208
      7 C         139.3856  138.8833  159.4684 C.3     1  UNL1        0.0723
      8 C         140.0843  138.4733  158.2059 C.ar    1  UNL1        0.1268
      9 N         139.2851  138.1303  156.9839 N.ar    1  UNL1       -0.2310
     10 C         139.9838  137.7202  155.7214 C.ar    1  UNL1        0.0977
     11 C         139.1846  137.3773  154.4993 C.ar    1  UNL1        0.0754
     12 CL        137.6866  137.4443  154.5396 Cl      1  UNL1       -0.0807
     13 C         139.8833  136.9673  153.2369 C.ar    1  UNL1        0.0129
     14 C         141.3813  136.9003  153.1966 C.ar    1  UNL1        0.0011
     15 C         142.1805  137.2433  154.4187 C.ar    1  UNL1        0.0063
     16 C         141.4818  137.6532  155.6811 C.ar    1  UNL1        0.0750
     17 C         142.2810  137.9963  156.9033 C.ar    1  UNL1        0.2670
     18 O         143.7790  137.9293  156.8630 O.2     1  UNL1       -0.2665
     19 N         141.5823  138.4063  158.1657 N.ar    1  UNL1       -0.2626
     20 O         144.7791  139.7782  163.0542 O.3     1  UNL1       -0.4791
     21 C         144.1011  140.3801  164.2492 C.3     1  UNL1        0.1687
     22 C         144.1404  141.8640  164.4656 C.3     1  UNL1        0.0609
     23 C         143.4624  142.4659  165.6605 C.3     1  UNL1        0.0758
     24 N         142.7450  141.5840  166.6391 N.3     1  UNL1       -0.2737
     25 C         142.7057  140.1002  166.4228 C.3     1  UNL1        0.0758
     26 C         143.3837  139.4983  165.2278 C.3     1  UNL1        0.0609
     27 C         142.0669  142.1859  167.8341 C.3     1  UNL1        0.0575
     28 C         140.6806  142.6750  168.1326 C.3     1  UNL1        0.0160
     29 C         141.1080  143.0371  169.5240 C.3     1  UNL1        0.0028
     30 C         142.4942  142.5481  169.2256 C.3     1  UNL1        0.0160
@<TRIPOS>BOND
     1     7     8    1
     2     8     9   ar
     3     9    10   ar
     4    10    11   ar
     5    11    12    1
     6    11    13   ar
     7    13    14   ar
     8    14    15   ar
     9    15    16   ar
    10    16    17   ar
    11    17    18    2
    12    17    19   ar
    13    19     1    1
    14     1     2   ar
    15     2     3   ar
    16     3     4   ar
    17     4    20    1
    18    20    21    1
    19    21    22    1
    20    22    23    1
    21    23    24    1
    22    24    27    1
    23    27    28    1
    24    28    29    1
    25    29    30    1
    26    24    25    1
    27    25    26    1
    28     4     5   ar
    29     5     6   ar
    30    19     8   ar
    31     6     1   ar
    32    16    10   ar
    33    26    21    1
    34    30    27    1
@<TRIPOS>MOLECULE
*****
 30 34 0 0 0
SMALL
GASTEIGER

@<TRIPOS>ATOM
      1 C         141.9271  138.9427  161.5087 C.ar    1  UNL1        0.0681
      2 C         142.8678  137.8068  161.2352 C.ar    1  UNL1        0.0208
      3 C         143.1708  137.4077  159.8214 C.ar    1  UNL1        0.0384
      4 C         142.5331  138.1445  158.6811 C.ar    1  UNL1        0.1385
      5 C         141.5924  139.2804  158.9546 C.ar    1  UNL1        0.0384
      6 C         141.2894  139.6795  160.3684 C.ar    1  UNL1        0.0208
      7 C         139.6215  137.6871  162.9605 C.3     1  UNL1        0.0723
      8 C         140.4714  138.7140  163.6485 C.ar    1  UNL1        0.1268
      9 N         140.1684  139.1130  165.0623 N.ar    1  UNL1       -0.2310
     10 C         141.0183  140.1399  165.7503 C.ar    1  UNL1        0.0977
     11 C         140.7153  140.5390  167.1641 C.ar    1  UNL1        0.0754
     12 CL        139.5625  139.9112  167.8900 Cl      1  UNL1       -0.0807
     13 C         141.5652  141.5658  167.8521 C.ar    1  UNL1        0.0129
     14 C         142.7180  142.1936  167.1262 C.ar    1  UNL1        0.0011
     15 C         143.0209  141.7946  165.7124 C.ar    1  UNL1        0.0063
     16 C         142.1711  140.7677  165.0244 C.ar    1  UNL1        0.0750
     17 C         142.4740  140.3686  163.6105 C.ar    1  UNL1        0.2670
     18 O         143.6268  140.9964  162.8847 O.2     1  UNL1       -0.2665
     19 N         141.6242  139.3418  162.9226 N.ar    1  UNL1       -0.2626
     20 O         142.8360  137.7454  157.2672 O.3     1  UNL1       -0.4791
     21 C         142.5521  136.3468  156.8055 C.3     1  UNL1        0.1687
     22 C         143.3492  135.1999  157.3528 C.3     1  UNL1        0.0609
     23 C         143.0652  133.8013  156.8911 C.3     1  UNL1        0.0758
     24 N         141.9842  133.5495  155.8820 N.3     1  UNL1       -0.2737
     25 C         141.1872  134.6963  155.3348 C.3     1  UNL1        0.0758
     26 C         141.4711  136.0949  155.7965 C.3     1  UNL1        0.0609
     27 C         141.7003  132.1508  155.4203 C.3     1  UNL1        0.0575
     28 C         142.3216  130.8072  155.6626 C.3     1  UNL1        0.0160
     29 C         141.2988  130.1729  154.7674 C.3     1  UNL1        0.0028
     30 C         140.6776  131.5164  154.5251 C.3     1  UNL1        0.0160
@<TRIPOS>BOND
     1     7     8    1
     2     8     9   ar
     3     9    10   ar
     4    10    11   ar
     5    11    12    1
     6    11    13   ar
     7    13    14   ar
     8    14    15   ar
     9    15    16   ar
    10    16    17   ar
    11    17    18    2
    12    17    19   ar
    13    19     1    1
    14     1     2   ar
    15     2     3   ar
    16     3     4   ar
    17     4    20    1
    18    20    21    1
    19    21    22    1
    20    22    23    1
    21    23    24    1
    22    24    27    1
    23    27    28    1
    24    28    29    1
    25    29    30    1
    26    24    25    1
    27    25    26    1
    28     4     5   ar
    29     5     6   ar
    30    19     8   ar
    31     6     1   ar
    32    16    10   ar
    33    26    21    1
    34    30    27    1
