@<TRIPOS>MOLECULE
*****
 40 45 0 0 0
SMALL
GASTEIGER

@<TRIPOS>ATOM
      1 C         140.3393  145.4050  158.2128 C.3     1  UNL1        0.0294
      2 C         140.0677  144.2659  157.2753 C.3     1  UNL1        0.0666
      3 S         139.0635  143.2144  157.6438 S.3     1  UNL1       -0.0756
      4 C         139.7401  141.2834  160.9422 C.ar    1  UNL1        0.1669
      5 N         138.4986  142.0449  161.3015 N.ar    1  UNL1       -0.1282
      6 N         138.0942  142.8609  160.1097 N.ar    1  UNL1       -0.1221
      7 C         139.0855  142.6038  159.0137 C.ar    1  UNL1        0.1932
      8 N         140.1027  141.6288  159.5283 N.ar    1  UNL1       -0.2884
      9 C         141.2766  141.0933  158.7632 C.3     1  UNL1        0.1340
     10 C         138.4653  139.2351  167.3788 C.3     1  UNL1        0.0521
     11 C         138.9708  139.5118  165.9939 C.ar    1  UNL1        0.0593
     12 C         138.2234  140.4534  165.0968 C.ar    1  UNL1        0.0147
     13 C         138.7289  140.7300  163.7119 C.ar    1  UNL1        0.0028
     14 C         139.9819  140.0652  163.2241 C.ar    1  UNL1        0.0206
     15 C         140.4875  140.3419  161.8392 C.ar    1  UNL1        0.0374
     16 C         141.7404  139.6769  161.3515 C.ar    1  UNL1        0.0031
     17 C         142.4879  138.7353  162.2486 C.ar    1  UNL1        0.0016
     18 C         141.9824  138.4587  163.6334 C.ar    1  UNL1        0.0191
     19 C         140.7294  139.1236  164.1212 C.ar    1  UNL1        0.0810
     20 N         140.2238  138.8469  165.5061 N.ar    1  UNL1       -0.2497
     21 C         141.5668  145.3906  159.0747 C.3     1  UNL1        0.0730
     22 N         141.5002  144.8322  160.4653 N.3     1  UNL1       -0.2720
     23 C         142.6011  143.8844  160.8394 C.3     1  UNL1        0.0768
     24 C         142.8152  143.1658  162.1386 C.3     1  UNL1        0.0434
     25 C         141.9815  143.2175  163.3844 C.ar    1  UNL1       -0.0225
     26 C         142.5509  142.3424  164.4616 C.ar    1  UNL1        0.0178
     27 C         141.8664  142.2504  165.7931 C.ar    1  UNL1        0.1187
     28 N         142.1905  141.4775  167.0370 N.ar    1  UNL1       -0.2121
     29 C         141.1371  141.7828  168.0603 C.ar    1  UNL1        0.2048
     30 O         140.1619  142.7445  167.4487 O.2     1  UNL1       -0.4380
     31 C         140.6125  143.0335  166.0476 C.ar    1  UNL1        0.1701
     32 C         140.0432  143.9086  164.9705 C.ar    1  UNL1        0.0664
     33 BR        138.7895  144.6917  165.2249 Br      1  UNL1       -0.0461
     34 C         140.7277  144.0006  163.6389 C.ar    1  UNL1       -0.0154
     35 C         139.9980  144.9254  162.7103 C.3     1  UNL1        0.0439
     36 C         140.3418  145.2955  161.2980 C.3     1  UNL1        0.0768
     37 C         141.0706  141.2244  169.4509 C.3     1  UNL1        0.0688
     38 C         140.3387  142.4512  169.9085 C.3     1  UNL1        0.0092
     39 C         141.8026  139.9977  168.9934 C.3     1  UNL1        0.0092
     40 C         141.0041  140.6661  170.8415 C.3     1  UNL1        0.0092
@<TRIPOS>BOND
     1    10    11    1
     2    11    12   ar
     3    12    13   ar
     4    13    14   ar
     5    14    15   ar
     6    15     4    1
     7     4     5   ar
     8     5     6   ar
     9     6     7   ar
    10     7     3    1
    11     3     2    1
    12     2     1    1
    13     1    21    1
    14    21    22    1
    15    22    23    1
    16    23    24    1
    17    24    25    1
    18    25    26   ar
    19    26    27   ar
    20    27    28   ar
    21    28    29   ar
    22    29    37    1
    23    37    38    1
    24    37    39    1
    25    37    40    1
    26    29    30   ar
    27    30    31   ar
    28    31    32   ar
    29    32    33    1
    30    32    34   ar
    31    34    35    1
    32    35    36    1
    33     7     8   ar
    34     8     9    1
    35    15    16   ar
    36    16    17   ar
    37    17    18   ar
    38    18    19   ar
    39    19    20   ar
    40    20    11   ar
    41    19    14   ar
    42     8     4   ar
    43    36    22    1
    44    34    25   ar
    45    31    27   ar
@<TRIPOS>MOLECULE
*****
 40 45 0 0 0
SMALL
GASTEIGER

@<TRIPOS>ATOM
      1 C         143.3443  142.6324  157.8923 C.3     1  UNL1        0.0294
      2 C         143.3526  141.6615  156.7489 C.3     1  UNL1        0.0666
      3 S         142.4118  140.4932  156.7503 S.3     1  UNL1       -0.0756
      4 C         141.4872  138.6672  160.0482 C.ar    1  UNL1        0.1669
      5 N         142.7283  137.9272  159.6453 N.ar    1  UNL1       -0.1282
      6 N         143.2256  138.5212  158.3608 N.ar    1  UNL1       -0.1221
      7 C         142.2920  139.6282  157.9699 C.ar    1  UNL1        0.1932
      8 N         141.2177  139.7184  159.0127 N.ar    1  UNL1       -0.2884
      9 C         140.0744  140.6895  159.0191 C.3     1  UNL1        0.1340
     10 C         143.1854  138.6538  166.7090 C.3     1  UNL1        0.0521
     11 C         142.5543  138.5909  165.3497 C.ar    1  UNL1        0.0593
     12 C         143.3806  138.8558  164.1261 C.ar    1  UNL1        0.0147
     13 C         142.7495  138.7929  162.7668 C.ar    1  UNL1        0.0028
     14 C         141.2920  138.4652  162.6310 C.ar    1  UNL1        0.0206
     15 C         140.6609  138.4024  161.2717 C.ar    1  UNL1        0.0374
     16 C         139.2035  138.0747  161.1360 C.ar    1  UNL1        0.0031
     17 C         138.3771  137.8099  162.3595 C.ar    1  UNL1        0.0016
     18 C         139.0082  137.8727  163.7187 C.ar    1  UNL1        0.0191
     19 C         140.4656  138.2004  163.8546 C.ar    1  UNL1        0.0810
     20 N         141.0967  138.2632  165.2139 N.ar    1  UNL1       -0.2497
     21 C         144.3755  142.5237  158.9761 C.3     1  UNL1        0.0730
     22 N         143.9500  142.4702  160.4136 N.3     1  UNL1       -0.2720
     23 C         145.0526  142.5910  161.4235 C.3     1  UNL1        0.0768
     24 C         144.9558  142.5744  162.9203 C.3     1  UNL1        0.0434
     25 C         143.7326  142.4330  163.7768 C.ar    1  UNL1       -0.0225
     26 C         144.0785  142.4666  165.2360 C.ar    1  UNL1        0.0178
     27 C         142.9959  142.3404  166.2665 C.ar    1  UNL1        0.1187
     28 N         143.0328  142.3389  167.7660 N.ar    1  UNL1       -0.2121
     29 C         141.6270  142.1782  168.2642 C.ar    1  UNL1        0.2048
     30 O         140.7214  142.0804  167.0725 O.2     1  UNL1       -0.4380
     31 C         141.5673  142.1806  165.8379 C.ar    1  UNL1        0.1701
     32 C         141.2214  142.1470  164.3787 C.ar    1  UNL1        0.0664
     33 BR        139.7929  141.9872  163.9500 Br      1  UNL1       -0.0461
     34 C         142.3040  142.2732  163.3482 C.ar    1  UNL1       -0.0154
     35 C         141.7459  142.2154  161.9571 C.3     1  UNL1        0.0439
     36 C         142.4785  142.3030  160.6511 C.3     1  UNL1        0.0768
     37 C         141.2017  142.1248  169.7016 C.3     1  UNL1        0.0688
     38 C         140.4888  143.4345  169.5394 C.3     1  UNL1        0.0092
     39 C         141.9146  140.8151  169.8639 C.3     1  UNL1        0.0092
     40 C         140.7764  142.0714  171.1390 C.3     1  UNL1        0.0092
@<TRIPOS>BOND
     1    10    11    1
     2    11    12   ar
     3    12    13   ar
     4    13    14   ar
     5    14    15   ar
     6    15     4    1
     7     4     5   ar
     8     5     6   ar
     9     6     7   ar
    10     7     3    1
    11     3     2    1
    12     2     1    1
    13     1    21    1
    14    21    22    1
    15    22    23    1
    16    23    24    1
    17    24    25    1
    18    25    26   ar
    19    26    27   ar
    20    27    28   ar
    21    28    29   ar
    22    29    37    1
    23    37    38    1
    24    37    39    1
    25    37    40    1
    26    29    30   ar
    27    30    31   ar
    28    31    32   ar
    29    32    33    1
    30    32    34   ar
    31    34    35    1
    32    35    36    1
    33     7     8   ar
    34     8     9    1
    35    15    16   ar
    36    16    17   ar
    37    17    18   ar
    38    18    19   ar
    39    19    20   ar
    40    20    11   ar
    41    19    14   ar
    42     8     4   ar
    43    36    22    1
    44    34    25   ar
    45    31    27   ar
@<TRIPOS>MOLECULE
*****
 40 45 0 0 0
SMALL
GASTEIGER

@<TRIPOS>ATOM
      1 C         140.9548  145.1993  158.5868 C.3     1  UNL1        0.0294
      2 C         140.2253  144.2667  157.6658 C.3     1  UNL1        0.0666
      3 S         140.5632  142.8053  157.6565 S.3     1  UNL1       -0.0756
      4 C         140.7134  141.0763  161.1284 C.ar    1  UNL1        0.1669
      5 N         142.1472  140.9854  160.6970 N.ar    1  UNL1       -0.1282
      6 N         142.2654  141.6220  159.3439 N.ar    1  UNL1       -0.1221
      7 C         140.9047  142.1064  158.9391 C.ar    1  UNL1        0.1932
      8 N         139.9456  141.7691  160.0419 N.ar    1  UNL1       -0.2884
      9 C         138.4764  142.0715  160.0558 C.3     1  UNL1        0.1340
     10 C         143.7693  138.0881  166.5119 C.3     1  UNL1        0.0521
     11 C         142.8638  138.7071  165.4887 C.ar    1  UNL1        0.0593
     12 C         143.4302  139.2192  164.1976 C.ar    1  UNL1        0.0147
     13 C         142.5246  139.8382  163.1745 C.ar    1  UNL1        0.0028
     14 C         141.0526  139.9453  163.4426 C.ar    1  UNL1        0.0206
     15 C         140.1470  140.5643  162.4194 C.ar    1  UNL1        0.0374
     16 C         138.6751  140.6713  162.6875 C.ar    1  UNL1        0.0031
     17 C         138.1087  140.1593  163.9787 C.ar    1  UNL1        0.0016
     18 C         139.0142  139.5403  165.0017 C.ar    1  UNL1        0.0191
     19 C         140.4862  139.4332  164.7337 C.ar    1  UNL1        0.0810
     20 N         141.3917  138.8142  165.7568 N.ar    1  UNL1       -0.2497
     21 C         140.2929  145.6827  159.8430 C.3     1  UNL1        0.0730
     22 N         140.6046  145.0264  161.1553 N.3     1  UNL1       -0.2720
     23 C         139.4347  144.8105  162.0691 C.3     1  UNL1        0.0768
     24 C         139.4162  144.1877  163.4336 C.3     1  UNL1        0.0434
     25 C         140.5629  143.6269  164.2212 C.ar    1  UNL1       -0.0225
     26 C         140.1085  143.0968  165.5489 C.ar    1  UNL1        0.0178
     27 C         141.1026  142.4902  166.4943 C.ar    1  UNL1        0.1187
     28 N         140.9514  141.8896  167.8604 N.ar    1  UNL1       -0.2121
     29 C         142.3064  141.4420  168.3226 C.ar    1  UNL1        0.2048
     30 O         143.2951  141.7659  167.2421 O.2     1  UNL1       -0.4380
     31 C         142.5511  142.4137  166.1121 C.ar    1  UNL1        0.1701
     32 C         143.0055  142.9438  164.7845 C.ar    1  UNL1        0.0664
     33 BR        144.4539  142.8674  164.4023 Br      1  UNL1       -0.0461
     34 C         142.0114  143.5504  163.8391 C.ar    1  UNL1       -0.0154
     35 C         142.6709  144.0159  162.5748 C.3     1  UNL1        0.0439
     36 C         142.0447  144.6727  161.3804 C.3     1  UNL1        0.0768
     37 C         142.6180  140.7857  169.6350 C.3     1  UNL1        0.0688
     38 C         143.6026  141.8740  169.9454 C.3     1  UNL1        0.0092
     39 C         141.6335  139.6975  169.3246 C.3     1  UNL1        0.0092
     40 C         142.9296  140.1295  170.9473 C.3     1  UNL1        0.0092
@<TRIPOS>BOND
     1    10    11    1
     2    11    12   ar
     3    12    13   ar
     4    13    14   ar
     5    14    15   ar
     6    15     4    1
     7     4     5   ar
     8     5     6   ar
     9     6     7   ar
    10     7     3    1
    11     3     2    1
    12     2     1    1
    13     1    21    1
    14    21    22    1
    15    22    23    1
    16    23    24    1
    17    24    25    1
    18    25    26   ar
    19    26    27   ar
    20    27    28   ar
    21    28    29   ar
    22    29    37    1
    23    37    38    1
    24    37    39    1
    25    37    40    1
    26    29    30   ar
    27    30    31   ar
    28    31    32   ar
    29    32    33    1
    30    32    34   ar
    31    34    35    1
    32    35    36    1
    33     7     8   ar
    34     8     9    1
    35    15    16   ar
    36    16    17   ar
    37    17    18   ar
    38    18    19   ar
    39    19    20   ar
    40    20    11   ar
    41    19    14   ar
    42     8     4   ar
    43    36    22    1
    44    34    25   ar
    45    31    27   ar
@<TRIPOS>MOLECULE
*****
 40 45 0 0 0
SMALL
GASTEIGER

@<TRIPOS>ATOM
      1 C         141.1671  144.7028  158.2314 C.3     1  UNL1        0.0294
      2 C         139.9112  144.4799  157.4419 C.3     1  UNL1        0.0666
      3 S         139.1537  143.1932  157.5852 S.3     1  UNL1       -0.0756
      4 C         139.4955  140.9532  160.7366 C.ar    1  UNL1        0.1669
      5 N         138.4716  141.9478  161.1976 N.ar    1  UNL1       -0.1282
      6 N         138.2190  142.9080  160.0732 N.ar    1  UNL1       -0.1221
      7 C         139.0867  142.5068  158.9173 C.ar    1  UNL1        0.1932
      8 N         139.8756  141.2987  159.3273 N.ar    1  UNL1       -0.2884
      9 C         140.8701  140.5649  158.4772 C.3     1  UNL1        0.1340
     10 C         138.0522  138.8573  167.1221 C.3     1  UNL1        0.0521
     11 C         138.5499  139.0963  165.7274 C.ar    1  UNL1        0.0593
     12 C         138.0023  140.2363  164.9207 C.ar    1  UNL1        0.0147
     13 C         138.5001  140.4752  163.5260 C.ar    1  UNL1        0.0028
     14 C         139.5453  139.5743  162.9380 C.ar    1  UNL1        0.0206
     15 C         140.0430  139.8134  161.5433 C.ar    1  UNL1        0.0374
     16 C         141.0883  138.9124  160.9554 C.ar    1  UNL1        0.0031
     17 C         141.6359  137.7725  161.7620 C.ar    1  UNL1        0.0016
     18 C         141.1382  137.5335  163.1566 C.ar    1  UNL1        0.0191
     19 C         140.0929  138.4344  163.7447 C.ar    1  UNL1        0.0810
     20 N         139.5952  138.1954  165.1394 N.ar    1  UNL1       -0.2497
     21 C         141.1227  145.4977  159.5026 C.3     1  UNL1        0.0730
     22 N         141.1020  144.7939  160.8271 N.3     1  UNL1       -0.2720
     23 C         140.1416  145.3422  161.8405 C.3     1  UNL1        0.0768
     24 C         139.8864  144.8668  163.2402 C.3     1  UNL1        0.0434
     25 C         140.5286  143.7259  163.9720 C.ar    1  UNL1       -0.0225
     26 C         139.9827  143.5901  165.3626 C.ar    1  UNL1        0.0178
     27 C         140.4928  142.5069  166.2661 C.ar    1  UNL1        0.1187
     28 N         140.1468  142.1303  167.6762 N.ar    1  UNL1       -0.2121
     29 C         140.9889  140.9500  168.0607 C.ar    1  UNL1        0.2048
     30 O         141.8554  140.5972  166.8883 O.2     1  UNL1       -0.4380
     31 C         141.5488  141.5593  165.7792 C.ar    1  UNL1        0.1701
     32 C         142.0947  141.6951  164.3886 C.ar    1  UNL1        0.0664
     33 BR        143.1506  140.7477  163.9016 Br      1  UNL1       -0.0461
     34 C         141.5846  142.7784  163.4851 C.ar    1  UNL1       -0.0154
     35 C         142.2592  142.7379  162.1459 C.3     1  UNL1        0.0439
     36 C         142.0444  143.6349  160.9630 C.3     1  UNL1        0.0768
     37 C         140.9682  140.2462  169.3853 C.3     1  UNL1        0.0688
     38 C         142.2778  139.5920  169.0581 C.3     1  UNL1        0.0092
     39 C         139.6587  140.9004  169.7124 C.3     1  UNL1        0.0092
     40 C         140.9475  139.5425  170.7097 C.3     1  UNL1        0.0092
@<TRIPOS>BOND
     1    10    11    1
     2    11    12   ar
     3    12    13   ar
     4    13    14   ar
     5    14    15   ar
     6    15     4    1
     7     4     5   ar
     8     5     6   ar
     9     6     7   ar
    10     7     3    1
    11     3     2    1
    12     2     1    1
    13     1    21    1
    14    21    22    1
    15    22    23    1
    16    23    24    1
    17    24    25    1
    18    25    26   ar
    19    26    27   ar
    20    27    28   ar
    21    28    29   ar
    22    29    37    1
    23    37    38    1
    24    37    39    1
    25    37    40    1
    26    29    30   ar
    27    30    31   ar
    28    31    32   ar
    29    32    33    1
    30    32    34   ar
    31    34    35    1
    32    35    36    1
    33     7     8   ar
    34     8     9    1
    35    15    16   ar
    36    16    17   ar
    37    17    18   ar
    38    18    19   ar
    39    19    20   ar
    40    20    11   ar
    41    19    14   ar
    42     8     4   ar
    43    36    22    1
    44    34    25   ar
    45    31    27   ar
@<TRIPOS>MOLECULE
*****
 40 45 0 0 0
SMALL
GASTEIGER

@<TRIPOS>ATOM
      1 C         140.0455  138.2856  157.9835 C.3     1  UNL1        0.0294
      2 C         141.2897  138.4917  157.1714 C.3     1  UNL1        0.0666
      3 S         142.6338  138.2060  157.7728 S.3     1  UNL1       -0.0756
      4 C         143.2585  139.4788  161.3860 C.ar    1  UNL1        0.1669
      5 N         143.1498  138.0001  161.6142 N.ar    1  UNL1       -0.1282
      6 N         142.9025  137.3435  160.2885 N.ar    1  UNL1       -0.1221
      7 C         142.8585  138.4161  159.2409 C.ar    1  UNL1        0.1932
      8 N         143.0785  139.7357  159.9192 N.ar    1  UNL1       -0.2884
      9 C         143.1125  141.0770  159.2484 C.3     1  UNL1        0.1340
     10 C         142.7634  139.1483  168.2341 C.3     1  UNL1        0.0521
     11 C         142.9486  139.4906  166.7854 C.ar    1  UNL1        0.0593
     12 C         142.7029  138.4516  165.7318 C.ar    1  UNL1        0.0147
     13 C         142.8881  138.7940  164.2832 C.ar    1  UNL1        0.0028
     14 C         143.3190  140.1754  163.8882 C.ar    1  UNL1        0.0206
     15 C         143.5042  140.5178  162.4395 C.ar    1  UNL1        0.0374
     16 C         143.9350  141.8992  162.0446 C.ar    1  UNL1        0.0031
     17 C         144.1807  142.9382  163.0982 C.ar    1  UNL1        0.0016
     18 C         143.9955  142.5959  164.5467 C.ar    1  UNL1        0.0191
     19 C         143.5646  141.2145  164.9417 C.ar    1  UNL1        0.0810
     20 N         143.3794  140.8721  166.3904 N.ar    1  UNL1       -0.2497
     21 C         139.3072  139.4679  158.5377 C.3     1  UNL1        0.0730
     22 N         139.4096  139.7994  159.9970 N.3     1  UNL1       -0.2720
     23 C         139.8344  141.2019  160.3175 C.3     1  UNL1        0.0768
     24 C         140.0282  141.8360  161.6631 C.3     1  UNL1        0.0434
     25 C         139.8450  141.2242  163.0202 C.ar    1  UNL1       -0.0225
     26 C         140.1447  142.2099  164.1106 C.ar    1  UNL1        0.0178
     27 C         140.0223  141.7986  165.5479 C.ar    1  UNL1        0.1187
     28 N         140.2501  142.5455  166.8285 N.ar    1  UNL1       -0.2121
     29 C         139.9687  141.6103  167.9670 C.ar    1  UNL1        0.2048
     30 O         139.5670  140.2853  167.3900 O.2     1  UNL1       -0.4380
     31 C         139.6001  140.4017  165.8950 C.ar    1  UNL1        0.1701
     32 C         139.3003  139.4160  164.8046 C.ar    1  UNL1        0.0664
     33 BR        138.8781  138.0192  165.1516 Br      1  UNL1       -0.0461
     34 C         139.4228  139.8273  163.3673 C.ar    1  UNL1       -0.0154
     35 C         139.0795  138.6972  162.4427 C.3     1  UNL1        0.0439
     36 C         139.0736  138.6848  160.9428 C.3     1  UNL1        0.0768
     37 C         140.0711  141.9419  169.4263 C.3     1  UNL1        0.0688
     38 C         140.5388  143.3243  169.0794 C.3     1  UNL1        0.0092
     39 C         139.6035  140.5596  169.7734 C.3     1  UNL1        0.0092
     40 C         140.1735  142.2736  170.8856 C.3     1  UNL1        0.0092
@<TRIPOS>BOND
     1    10    11    1
     2    11    12   ar
     3    12    13   ar
     4    13    14   ar
     5    14    15   ar
     6    15     4    1
     7     4     5   ar
     8     5     6   ar
     9     6     7   ar
    10     7     3    1
    11     3     2    1
    12     2     1    1
    13     1    21    1
    14    21    22    1
    15    22    23    1
    16    23    24    1
    17    24    25    1
    18    25    26   ar
    19    26    27   ar
    20    27    28   ar
    21    28    29   ar
    22    29    37    1
    23    37    38    1
    24    37    39    1
    25    37    40    1
    26    29    30   ar
    27    30    31   ar
    28    31    32   ar
    29    32    33    1
    30    32    34   ar
    31    34    35    1
    32    35    36    1
    33     7     8   ar
    34     8     9    1
    35    15    16   ar
    36    16    17   ar
    37    17    18   ar
    38    18    19   ar
    39    19    20   ar
    40    20    11   ar
    41    19    14   ar
    42     8     4   ar
    43    36    22    1
    44    34    25   ar
    45    31    27   ar
@<TRIPOS>MOLECULE
*****
 40 45 0 0 0
SMALL
GASTEIGER

@<TRIPOS>ATOM
      1 C         142.7110  139.8696  169.0969 C.3     1  UNL1        0.0294
      2 C         141.5425  139.5249  169.9722 C.3     1  UNL1        0.0666
      3 S         140.1997  140.1383  169.7065 S.3     1  UNL1       -0.0756
      4 C         139.2562  141.3262  166.1338 C.ar    1  UNL1        0.1669
      5 N         138.7483  139.9149  166.1136 N.ar    1  UNL1       -0.1282
      6 N         139.0400  139.2982  167.4494 N.ar    1  UNL1       -0.1221
      7 C         139.7281  140.3283  168.2953 C.ar    1  UNL1        0.1932
      8 N         139.8617  141.5816  167.4822 N.ar    1  UNL1       -0.2884
      9 C         140.4905  142.8652  167.9375 C.3     1  UNL1        0.1340
     10 C         137.8238  140.4162  159.4727 C.3     1  UNL1        0.0521
     11 C         138.1611  140.8895  160.8555 C.ar    1  UNL1        0.0593
     12 C         138.2442  139.9063  161.9853 C.ar    1  UNL1        0.0147
     13 C         138.5815  140.3796  163.3681 C.ar    1  UNL1        0.0028
     14 C         138.8358  141.8361  163.6212 C.ar    1  UNL1        0.0206
     15 C         139.1732  142.3094  165.0041 C.ar    1  UNL1        0.0374
     16 C         139.4274  143.7658  165.2570 C.ar    1  UNL1        0.0031
     17 C         139.3444  144.7490  164.1272 C.ar    1  UNL1        0.0016
     18 C         139.0070  144.2758  162.7445 C.ar    1  UNL1        0.0191
     19 C         138.7527  142.8193  162.4914 C.ar    1  UNL1        0.0810
     20 N         138.4154  142.3460  161.1085 N.ar    1  UNL1       -0.2497
     21 C         142.9187  139.1414  167.8022 C.3     1  UNL1        0.0730
     22 N         142.7869  139.8741  166.5000 N.3     1  UNL1       -0.2720
     23 C         142.3304  139.0498  165.3328 C.3     1  UNL1        0.0768
     24 C         142.1033  139.4820  163.9144 C.3     1  UNL1        0.0434
     25 C         142.2765  140.8451  163.3131 C.ar    1  UNL1       -0.0225
     26 C         141.9407  140.8458  161.8511 C.ar    1  UNL1        0.0178
     27 C         142.0481  142.1141  161.0575 C.ar    1  UNL1        0.1187
     28 N         141.7858  142.4192  159.6125 N.ar    1  UNL1       -0.2121
     29 C         142.0668  143.8754  159.3877 C.ar    1  UNL1        0.2048
     30 O         142.5028  144.4703  160.6938 O.2     1  UNL1       -0.4380
     31 C         142.4913  143.3818  161.7257 C.ar    1  UNL1        0.1701
     32 C         142.8270  143.3811  163.1877 C.ar    1  UNL1        0.0664
     33 BR        143.2701  144.6488  163.8560 Br      1  UNL1       -0.0461
     34 C         142.7196  142.1128  163.9813 C.ar    1  UNL1       -0.0154
     35 C         143.0990  142.3304  165.4162 C.3     1  UNL1        0.0439
     36 C         143.1289  141.3340  166.5370 C.3     1  UNL1        0.0768
     37 C         141.9350  144.6080  158.0854 C.3     1  UNL1        0.0688
     38 C         142.9624  143.7033  157.4724 C.3     1  UNL1        0.0092
     39 C         140.9075  145.5128  158.6983 C.3     1  UNL1        0.0092
     40 C         141.8031  145.3406  156.7832 C.3     1  UNL1        0.0092
@<TRIPOS>BOND
     1    10    11    1
     2    11    12   ar
     3    12    13   ar
     4    13    14   ar
     5    14    15   ar
     6    15     4    1
     7     4     5   ar
     8     5     6   ar
     9     6     7   ar
    10     7     3    1
    11     3     2    1
    12     2     1    1
    13     1    21    1
    14    21    22    1
    15    22    23    1
    16    23    24    1
    17    24    25    1
    18    25    26   ar
    19    26    27   ar
    20    27    28   ar
    21    28    29   ar
    22    29    37    1
    23    37    38    1
    24    37    39    1
    25    37    40    1
    26    29    30   ar
    27    30    31   ar
    28    31    32   ar
    29    32    33    1
    30    32    34   ar
    31    34    35    1
    32    35    36    1
    33     7     8   ar
    34     8     9    1
    35    15    16   ar
    36    16    17   ar
    37    17    18   ar
    38    18    19   ar
    39    19    20   ar
    40    20    11   ar
    41    19    14   ar
    42     8     4   ar
    43    36    22    1
    44    34    25   ar
    45    31    27   ar
@<TRIPOS>MOLECULE
*****
 40 45 0 0 0
SMALL
GASTEIGER

@<TRIPOS>ATOM
      1 C         141.4090  142.0003  156.4826 C.3     1  UNL1        0.0294
      2 C         142.4576  141.0543  155.9767 C.3     1  UNL1        0.0666
      3 S         142.5288  139.6561  156.5153 S.3     1  UNL1       -0.0756
      4 C         141.7977  138.9292  160.2573 C.ar    1  UNL1        0.1669
      5 N         143.2732  139.1965  160.2968 N.ar    1  UNL1       -0.1282
      6 N         143.7266  139.5013  158.8999 N.ar    1  UNL1       -0.1221
      7 C         142.5314  139.4224  157.9970 C.ar    1  UNL1        0.1932
      8 N         141.3393  139.0689  158.8359 N.ar    1  UNL1       -0.2884
      9 C         139.9352  138.8869  158.3404 C.3     1  UNL1        0.1340
     10 C         143.2204  138.6967  166.9783 C.3     1  UNL1        0.0521
     11 C         142.6485  138.6683  165.5919 C.ar    1  UNL1        0.0593
     12 C         143.5136  139.0144  164.4164 C.ar    1  UNL1        0.0147
     13 C         142.9416  138.9860  163.0300 C.ar    1  UNL1        0.0028
     14 C         141.5045  138.6115  162.8191 C.ar    1  UNL1        0.0206
     15 C         140.9326  138.5831  161.4327 C.ar    1  UNL1        0.0374
     16 C         139.4955  138.2085  161.2218 C.ar    1  UNL1        0.0031
     17 C         138.6304  137.8623  162.3973 C.ar    1  UNL1        0.0016
     18 C         139.2023  137.8907  163.7836 C.ar    1  UNL1        0.0191
     19 C         140.6394  138.2653  163.9946 C.ar    1  UNL1        0.0810
     20 N         141.2113  138.2937  165.3810 N.ar    1  UNL1       -0.2497
     21 C         141.7745  143.0638  157.4752 C.3     1  UNL1        0.0730
     22 N         141.5562  142.8290  158.9405 N.3     1  UNL1       -0.2720
     23 C         140.1777  142.3837  159.3299 C.3     1  UNL1        0.0768
     24 C         139.6478  142.0700  160.6978 C.3     1  UNL1        0.0434
     25 C         140.3653  142.1241  162.0138 C.ar    1  UNL1       -0.0225
     26 C         139.4638  141.7301  163.1461 C.ar    1  UNL1        0.0178
     27 C         139.9871  141.7174  164.5518 C.ar    1  UNL1        0.1187
     28 N         139.3392  141.3763  165.8609 N.ar    1  UNL1       -0.2121
     29 C         140.3635  141.5466  166.9434 C.ar    1  UNL1        0.2048
     30 O         141.6444  141.9930  166.3033 O.2     1  UNL1       -0.4380
     31 C         141.4119  142.0985  164.8253 C.ar    1  UNL1        0.1701
     32 C         142.3134  142.4924  163.6929 C.ar    1  UNL1        0.0664
     33 BR        143.7381  142.8736  163.9663 Br      1  UNL1       -0.0461
     34 C         141.7901  142.5052  162.2872 C.ar    1  UNL1       -0.0154
     35 C         142.8492  142.9264  161.3121 C.3     1  UNL1        0.0439
     36 C         142.7450  143.0705  159.8226 C.3     1  UNL1        0.0768
     37 C         140.1450  141.3118  168.4088 C.3     1  UNL1        0.0688
     38 C         140.8046  142.6233  168.7172 C.3     1  UNL1        0.0092
     39 C         139.4855  140.0004  168.1004 C.3     1  UNL1        0.0092
     40 C         139.9266  141.0770  169.8740 C.3     1  UNL1        0.0092
@<TRIPOS>BOND
     1    10    11    1
     2    11    12   ar
     3    12    13   ar
     4    13    14   ar
     5    14    15   ar
     6    15     4    1
     7     4     5   ar
     8     5     6   ar
     9     6     7   ar
    10     7     3    1
    11     3     2    1
    12     2     1    1
    13     1    21    1
    14    21    22    1
    15    22    23    1
    16    23    24    1
    17    24    25    1
    18    25    26   ar
    19    26    27   ar
    20    27    28   ar
    21    28    29   ar
    22    29    37    1
    23    37    38    1
    24    37    39    1
    25    37    40    1
    26    29    30   ar
    27    30    31   ar
    28    31    32   ar
    29    32    33    1
    30    32    34   ar
    31    34    35    1
    32    35    36    1
    33     7     8   ar
    34     8     9    1
    35    15    16   ar
    36    16    17   ar
    37    17    18   ar
    38    18    19   ar
    39    19    20   ar
    40    20    11   ar
    41    19    14   ar
    42     8     4   ar
    43    36    22    1
    44    34    25   ar
    45    31    27   ar
@<TRIPOS>MOLECULE
*****
 40 45 0 0 0
SMALL
GASTEIGER

@<TRIPOS>ATOM
      1 C         142.9202  139.0360  157.3973 C.3     1  UNL1        0.0294
      2 C         141.8429  139.5020  156.4633 C.3     1  UNL1        0.0666
      3 S         141.6927  140.9635  156.1613 S.3     1  UNL1       -0.0756
      4 C         142.0640  143.4969  159.0784 C.ar    1  UNL1        0.1669
      5 N         143.4035  143.6207  158.4146 N.ar    1  UNL1       -0.1282
      6 N         143.4274  142.6868  157.2411 N.ar    1  UNL1       -0.1221
      7 C         142.1027  141.9858  157.1796 C.ar    1  UNL1        0.1932
      8 N         141.2602  142.4864  158.3151 N.ar    1  UNL1       -0.2884
      9 C         139.8595  142.0527  158.6317 C.3     1  UNL1        0.1340
     10 C         144.6263  143.7347  165.4525 C.3     1  UNL1        0.0521
     11 C         143.8719  143.8638  164.1624 C.ar    1  UNL1        0.0593
     12 C         144.3274  143.1096  162.9485 C.ar    1  UNL1        0.0147
     13 C         143.5729  143.2387  161.6585 C.ar    1  UNL1        0.0028
     14 C         142.3630  144.1220  161.5824 C.ar    1  UNL1        0.0206
     15 C         141.6085  144.2510  160.2923 C.ar    1  UNL1        0.0374
     16 C         140.3986  145.1343  160.2163 C.ar    1  UNL1        0.0031
     17 C         139.9431  145.8885  161.4303 C.ar    1  UNL1        0.0016
     18 C         140.6975  145.7594  162.7202 C.ar    1  UNL1        0.0191
     19 C         141.9074  144.8762  162.7963 C.ar    1  UNL1        0.0810
     20 N         142.6619  144.7471  164.0864 N.ar    1  UNL1       -0.2497
     21 C         142.5754  138.1501  158.5576 C.3     1  UNL1        0.0730
     22 N         142.4854  138.7256  159.9399 N.3     1  UNL1       -0.2720
     23 C         141.2840  139.5819  160.2113 C.3     1  UNL1        0.0768
     24 C         140.9091  140.2928  161.4779 C.3     1  UNL1        0.0434
     25 C         141.6429  140.3230  162.7856 C.ar    1  UNL1       -0.0225
     26 C         140.9198  141.1581  163.8006 C.ar    1  UNL1        0.0178
     27 C         141.4868  141.3199  165.1798 C.ar    1  UNL1        0.1187
     28 N         141.0025  142.0753  166.3818 N.ar    1  UNL1       -0.2121
     29 C         141.9931  141.8690  167.4891 C.ar    1  UNL1        0.2048
     30 O         143.0897  140.9861  166.9714 O.2     1  UNL1       -0.4380
     31 C         142.7768  140.6468  165.5443 C.ar    1  UNL1        0.1701
     32 C         143.4998  139.8117  164.5294 C.ar    1  UNL1        0.0664
     33 BR        144.7898  139.1386  164.8937 Br      1  UNL1       -0.0461
     34 C         142.9329  139.6499  163.1501 C.ar    1  UNL1       -0.0154
     35 C         143.8076  138.7802  162.2966 C.3     1  UNL1        0.0439
     36 C         143.6084  138.3689  160.8679 C.3     1  UNL1        0.0768
     37 C         141.9030  142.4445  168.8714 C.3     1  UNL1        0.0688
     38 C         143.4002  142.4699  168.9585 C.3     1  UNL1        0.0092
     39 C         140.4058  142.4192  168.7843 C.3     1  UNL1        0.0092
     40 C         141.8129  143.0201  170.2536 C.3     1  UNL1        0.0092
@<TRIPOS>BOND
     1    10    11    1
     2    11    12   ar
     3    12    13   ar
     4    13    14   ar
     5    14    15   ar
     6    15     4    1
     7     4     5   ar
     8     5     6   ar
     9     6     7   ar
    10     7     3    1
    11     3     2    1
    12     2     1    1
    13     1    21    1
    14    21    22    1
    15    22    23    1
    16    23    24    1
    17    24    25    1
    18    25    26   ar
    19    26    27   ar
    20    27    28   ar
    21    28    29   ar
    22    29    37    1
    23    37    38    1
    24    37    39    1
    25    37    40    1
    26    29    30   ar
    27    30    31   ar
    28    31    32   ar
    29    32    33    1
    30    32    34   ar
    31    34    35    1
    32    35    36    1
    33     7     8   ar
    34     8     9    1
    35    15    16   ar
    36    16    17   ar
    37    17    18   ar
    38    18    19   ar
    39    19    20   ar
    40    20    11   ar
    41    19    14   ar
    42     8     4   ar
    43    36    22    1
    44    34    25   ar
    45    31    27   ar
@<TRIPOS>MOLECULE
*****
 40 45 0 0 0
SMALL
GASTEIGER

@<TRIPOS>ATOM
      1 C         138.0026  138.7814  166.0166 C.3     1  UNL1        0.0294
      2 C         138.3240  139.1427  167.4366 C.3     1  UNL1        0.0666
      3 S         139.5437  139.9596  167.7449 S.3     1  UNL1       -0.0756
      4 C         141.7747  141.5781  165.0120 C.ar    1  UNL1        0.1669
      5 N         140.5925  142.5015  165.0055 N.ar    1  UNL1       -0.1282
      6 N         139.6130  142.0075  166.0285 N.ar    1  UNL1       -0.1221
      7 C         140.1897  140.7789  166.6672 C.ar    1  UNL1        0.1932
      8 N         141.5256  140.5135  166.0390 N.ar    1  UNL1       -0.2884
      9 C         142.4504  139.3822  166.3782 C.3     1  UNL1        0.1340
     10 C         142.4011  142.0993  158.1866 C.3     1  UNL1        0.0521
     11 C         142.5488  141.9990  159.6760 C.ar    1  UNL1        0.0593
     12 C         141.3314  141.8789  160.5440 C.ar    1  UNL1        0.0147
     13 C         141.4792  141.7786  162.0333 C.ar    1  UNL1        0.0028
     14 C         142.8443  141.7985  162.6547 C.ar    1  UNL1        0.0206
     15 C         142.9921  141.6982  164.1440 C.ar    1  UNL1        0.0374
     16 C         144.3572  141.7181  164.7652 C.ar    1  UNL1        0.0031
     17 C         145.5746  141.8383  163.8972 C.ar    1  UNL1        0.0016
     18 C         145.4269  141.9385  162.4079 C.ar    1  UNL1        0.0191
     19 C         144.0617  141.9187  161.7866 C.ar    1  UNL1        0.0810
     20 N         143.9140  142.0189  160.2972 N.ar    1  UNL1       -0.2497
     21 C         138.7115  137.6371  165.3550 C.3     1  UNL1        0.0730
     22 N         139.3398  137.8232  164.0057 N.3     1  UNL1       -0.2720
     23 C         138.3860  138.0332  162.8671 C.3     1  UNL1        0.0768
     24 C         138.6956  138.2466  161.4150 C.3     1  UNL1        0.0434
     25 C         140.0354  138.3027  160.7429 C.ar    1  UNL1       -0.0225
     26 C         139.8989  138.5356  159.2673 C.ar    1  UNL1        0.0178
     27 C         141.1235  138.6252  158.4057 C.ar    1  UNL1        0.1187
     28 N         141.3004  138.8465  156.9328 N.ar    1  UNL1       -0.2121
     29 C         142.7708  138.8400  156.6363 C.ar    1  UNL1        0.2048
     30 O         143.5026  138.6146  157.9261 O.2     1  UNL1       -0.4380
     31 C         142.4846  138.4818  159.0196 C.ar    1  UNL1        0.1701
     32 C         142.6211  138.2489  160.4952 C.ar    1  UNL1        0.0664
     33 BR        143.9821  138.1056  161.1090 Br      1  UNL1       -0.0461
     34 C         141.3965  138.1594  161.3567 C.ar    1  UNL1       -0.0154
     35 C         141.7540  137.9244  162.7945 C.3     1  UNL1        0.0439
     36 C         140.8386  137.7748  163.9733 C.3     1  UNL1        0.0768
     37 C         143.3990  139.0262  155.2869 C.3     1  UNL1        0.0688
     38 C         142.2582  138.2860  154.6538 C.3     1  UNL1        0.0092
     39 C         144.5397  139.7663  155.9200 C.3     1  UNL1        0.0092
     40 C         144.0270  139.2123  153.9376 C.3     1  UNL1        0.0092
@<TRIPOS>BOND
     1    10    11    1
     2    11    12   ar
     3    12    13   ar
     4    13    14   ar
     5    14    15   ar
     6    15     4    1
     7     4     5   ar
     8     5     6   ar
     9     6     7   ar
    10     7     3    1
    11     3     2    1
    12     2     1    1
    13     1    21    1
    14    21    22    1
    15    22    23    1
    16    23    24    1
    17    24    25    1
    18    25    26   ar
    19    26    27   ar
    20    27    28   ar
    21    28    29   ar
    22    29    37    1
    23    37    38    1
    24    37    39    1
    25    37    40    1
    26    29    30   ar
    27    30    31   ar
    28    31    32   ar
    29    32    33    1
    30    32    34   ar
    31    34    35    1
    32    35    36    1
    33     7     8   ar
    34     8     9    1
    35    15    16   ar
    36    16    17   ar
    37    17    18   ar
    38    18    19   ar
    39    19    20   ar
    40    20    11   ar
    41    19    14   ar
    42     8     4   ar
    43    36    22    1
    44    34    25   ar
    45    31    27   ar
