@<TRIPOS>MOLECULE
*****
 25 28 0 0 0
SMALL
GASTEIGER

@<TRIPOS>ATOM
      1 N         141.0673  139.9647  168.2029 N.3     1  UNL1       -0.1594
      2 C         141.9505  139.6463  167.0331 C.3     1  UNL1        0.0954
      3 C         141.3517  139.4572  165.6708 C.3     1  UNL1        0.0192
      4 C         139.8698  139.5865  165.4784 C.3     1  UNL1        0.0037
      5 C         138.9866  139.9050  166.6482 C.3     1  UNL1        0.0192
      6 C         139.5854  140.0940  168.0105 C.3     1  UNL1        0.0954
      7 C         138.4808  139.6357  164.9141 C.3     1  UNL1        0.0092
      8 C         139.0231  139.3192  163.5519 C.3     1  UNL1        0.0767
      9 C         140.4120  139.2700  164.1160 C.3     1  UNL1        0.0092
     10 C         138.4243  139.1301  162.1896 C.2     1  UNL1        0.2252
     11 O         137.6187  137.9012  161.8884 O.2     1  UNL1       -0.2749
     12 N         138.6312  140.1699  161.1285 N.am    1  UNL1       -0.2767
     13 C         139.4369  141.3989  161.4297 C.3     1  UNL1        0.1107
     14 C         139.6438  142.4387  160.3686 C.3     1  UNL1        0.0939
     15 N         139.0450  142.2496  159.0063 N.3     1  UNL1       -0.2711
     16 C         138.2394  141.0207  158.7051 C.3     1  UNL1        0.0939
     17 C         138.0325  139.9808  159.7663 C.3     1  UNL1        0.1107
     18 C         139.2519  143.2895  157.9452 C.3     1  UNL1        0.0576
     19 C         140.0205  144.5744  157.8549 C.3     1  UNL1        0.0160
     20 C         139.5445  144.7601  156.4446 C.3     1  UNL1        0.0028
     21 C         138.7759  143.4751  156.5349 C.3     1  UNL1        0.0160
     22 C         142.2648  140.3428  170.9274 C.3     1  UNL1        0.1960
     23 S         141.6661  140.1538  169.5652 S.O2    1  UNL1        0.0457
     24 O         142.9082  140.7172  168.9410 O.2     1  UNL1       -0.1572
     25 O         140.4239  139.5903  170.1893 O.2     1  UNL1       -0.1572
@<TRIPOS>BOND
     1    22    23    1
     2    23    24    2
     3    23    25    2
     4    23     1    1
     5     1     2    1
     6     2     3    1
     7     3     4    1
     8     4     5    1
     9     5     6    1
    10     4     7    1
    11     7     8    1
    12     8    10    1
    13    10    11    2
    14    10    12   am
    15    12    13    1
    16    13    14    1
    17    14    15    1
    18    15    18    1
    19    18    19    1
    20    19    20    1
    21    20    21    1
    22    15    16    1
    23    16    17    1
    24     8     9    1
    25     6     1    1
    26    17    12    1
    27     9     4    1
    28    21    18    1
@<TRIPOS>MOLECULE
*****
 25 28 0 0 0
SMALL
GASTEIGER

@<TRIPOS>ATOM
      1 N         142.0070  134.8696  155.1661 N.3     1  UNL1       -0.1594
      2 C         143.0701  135.0562  156.2077 C.3     1  UNL1        0.0954
      3 C         142.9548  136.1700  157.2058 C.3     1  UNL1        0.0192
      4 C         141.7764  137.0970  157.1624 C.3     1  UNL1        0.0037
      5 C         140.7133  136.9104  156.1208 C.3     1  UNL1        0.0192
      6 C         140.8286  135.7967  155.1226 C.3     1  UNL1        0.0954
      7 C         140.7798  138.1869  157.4252 C.3     1  UNL1        0.0092
      8 C         141.6134  138.6721  158.5740 C.3     1  UNL1        0.0767
      9 C         142.6100  137.5823  158.3112 C.3     1  UNL1        0.0092
     10 C         141.4981  139.7858  159.5722 C.2     1  UNL1        0.2252
     11 O         142.0564  141.1407  159.2520 O.2     1  UNL1       -0.2749
     12 N         140.8246  139.5446  160.8905 N.am    1  UNL1       -0.2767
     13 C         140.2663  138.1897  161.2108 C.3     1  UNL1        0.1107
     14 C         139.5927  137.9485  162.5292 C.3     1  UNL1        0.0939
     15 N         139.4775  139.0623  163.5273 N.3     1  UNL1       -0.2711
     16 C         140.0357  140.4172  163.2071 C.3     1  UNL1        0.0939
     17 C         140.7093  140.6584  161.8887 C.3     1  UNL1        0.1107
     18 C         138.8039  138.8210  164.8458 C.3     1  UNL1        0.0576
     19 C         138.5152  137.6109  165.6836 C.3     1  UNL1        0.0160
     20 C         137.8513  138.4800  166.7102 C.3     1  UNL1        0.0028
     21 C         138.1400  139.6902  165.8723 C.3     1  UNL1        0.0160
     22 C         142.2375  132.6421  153.1698 C.3     1  UNL1        0.1960
     23 S         142.1223  133.7559  154.1679 S.O2    1  UNL1        0.0457
     24 O         142.1759  134.7594  153.0544 O.2     1  UNL1       -0.1572
     25 O         142.0686  132.7523  155.2815 O.2     1  UNL1       -0.1572
@<TRIPOS>BOND
     1    22    23    1
     2    23    24    2
     3    23    25    2
     4    23     1    1
     5     1     2    1
     6     2     3    1
     7     3     4    1
     8     4     5    1
     9     5     6    1
    10     4     7    1
    11     7     8    1
    12     8    10    1
    13    10    11    2
    14    10    12   am
    15    12    13    1
    16    13    14    1
    17    14    15    1
    18    15    18    1
    19    18    19    1
    20    19    20    1
    21    20    21    1
    22    15    16    1
    23    16    17    1
    24     8     9    1
    25     6     1    1
    26    17    12    1
    27     9     4    1
    28    21    18    1
@<TRIPOS>MOLECULE
*****
 25 28 0 0 0
SMALL
GASTEIGER

@<TRIPOS>ATOM
      1 N         138.8236  151.4246  154.5080 N.3     1  UNL1       -0.1594
      2 C         138.4017  150.7427  155.7756 C.3     1  UNL1        0.0954
      3 C         138.7107  149.2898  155.9843 C.3     1  UNL1        0.0192
      4 C         139.4415  148.5188  154.9254 C.3     1  UNL1        0.0037
      5 C         139.8634  149.2007  153.6578 C.3     1  UNL1        0.0192
      6 C         139.5545  150.6536  153.4491 C.3     1  UNL1        0.0954
      7 C         140.1306  147.4550  154.1231 C.3     1  UNL1        0.0092
      8 C         139.8784  146.4640  155.2205 C.3     1  UNL1        0.0767
      9 C         139.1893  147.5277  156.0229 C.3     1  UNL1        0.0092
     10 C         140.1874  145.0111  155.4292 C.2     1  UNL1        0.2252
     11 O         141.6048  144.5688  155.6420 O.2     1  UNL1       -0.2749
     12 N         139.0789  144.0005  155.4252 N.am    1  UNL1       -0.2767
     13 C         137.6615  144.4429  155.2124 C.3     1  UNL1        0.1107
     14 C         136.5530  143.4323  155.2083 C.3     1  UNL1        0.0939
     15 N         136.8620  141.9794  155.4170 N.3     1  UNL1       -0.2711
     16 C         138.2794  141.5370  155.6298 C.3     1  UNL1        0.0939
     17 C         139.3879  142.5476  155.6339 C.3     1  UNL1        0.1107
     18 C         135.7535  140.9688  155.4130 C.3     1  UNL1        0.0576
     19 C         135.1983  140.0074  154.4043 C.3     1  UNL1        0.0160
     20 C         134.1858  139.5396  155.4073 C.3     1  UNL1        0.0028
     21 C         134.7410  140.5010  156.4160 C.3     1  UNL1        0.0160
     22 C         138.2057  154.3305  154.0906 C.3     1  UNL1        0.1960
     23 S         138.5147  152.8776  154.2993 S.O2    1  UNL1        0.0457
     24 O         138.7596  153.1389  155.7560 O.2     1  UNL1       -0.1572
     25 O         138.2698  152.6163  152.8427 O.2     1  UNL1       -0.1572
@<TRIPOS>BOND
     1    22    23    1
     2    23    24    2
     3    23    25    2
     4    23     1    1
     5     1     2    1
     6     2     3    1
     7     3     4    1
     8     4     5    1
     9     5     6    1
    10     4     7    1
    11     7     8    1
    12     8    10    1
    13    10    11    2
    14    10    12   am
    15    12    13    1
    16    13    14    1
    17    14    15    1
    18    15    18    1
    19    18    19    1
    20    19    20    1
    21    20    21    1
    22    15    16    1
    23    16    17    1
    24     8     9    1
    25     6     1    1
    26    17    12    1
    27     9     4    1
    28    21    18    1
@<TRIPOS>MOLECULE
*****
 25 28 0 0 0
SMALL
GASTEIGER

@<TRIPOS>ATOM
      1 N         140.2479  140.9763  168.4623 N.3     1  UNL1       -0.1594
      2 C         140.6696  142.1779  167.6697 C.3     1  UNL1        0.0954
      3 C         140.2490  142.3165  166.2365 C.3     1  UNL1        0.0192
      4 C         139.4068  141.2533  165.5959 C.3     1  UNL1        0.0037
      5 C         138.9852  140.0517  166.3885 C.3     1  UNL1        0.0192
      6 C         139.4057  139.9132  167.8216 C.3     1  UNL1        0.0954
      7 C         138.5935  140.4266  164.6445 C.3     1  UNL1        0.0092
      8 C         138.8121  141.4493  163.5691 C.3     1  UNL1        0.0767
      9 C         139.6255  142.2760  164.5205 C.3     1  UNL1        0.0092
     10 C         138.3916  141.5878  162.1360 C.2     1  UNL1        0.2252
     11 O         137.3638  142.6103  161.7514 O.2     1  UNL1       -0.2749
     12 N         138.9989  140.7038  161.0873 N.am    1  UNL1       -0.2767
     13 C         140.0268  139.6812  161.4719 C.3     1  UNL1        0.1107
     14 C         140.6341  138.7972  160.4232 C.3     1  UNL1        0.0939
     15 N         140.2136  138.9357  158.9901 N.3     1  UNL1       -0.2711
     16 C         139.1858  139.9582  158.6055 C.3     1  UNL1        0.0939
     17 C         138.5784  140.8423  159.6542 C.3     1  UNL1        0.1107
     18 C         140.8210  138.0516  157.9414 C.3     1  UNL1        0.0576
     19 C         140.2904  137.2668  156.7786 C.3     1  UNL1        0.0160
     20 C         141.6800  136.8014  156.4585 C.3     1  UNL1        0.0028
     21 C         142.2106  137.5862  157.6215 C.3     1  UNL1        0.0160
     22 C         141.0889  140.6992  171.3286 C.3     1  UNL1        0.1960
     23 S         140.6684  140.8378  169.8954 S.O2    1  UNL1        0.0457
     24 O         139.2497  141.0528  170.3325 O.2     1  UNL1       -0.1572
     25 O         142.0871  140.6227  169.4584 O.2     1  UNL1       -0.1572
@<TRIPOS>BOND
     1    22    23    1
     2    23    24    2
     3    23    25    2
     4    23     1    1
     5     1     2    1
     6     2     3    1
     7     3     4    1
     8     4     5    1
     9     5     6    1
    10     4     7    1
    11     7     8    1
    12     8    10    1
    13    10    11    2
    14    10    12   am
    15    12    13    1
    16    13    14    1
    17    14    15    1
    18    15    18    1
    19    18    19    1
    20    19    20    1
    21    20    21    1
    22    15    16    1
    23    16    17    1
    24     8     9    1
    25     6     1    1
    26    17    12    1
    27     9     4    1
    28    21    18    1
@<TRIPOS>MOLECULE
*****
 25 28 0 0 0
SMALL
GASTEIGER

@<TRIPOS>ATOM
      1 N         141.7702  141.1215  168.7398 N.3     1  UNL1       -0.1594
      2 C         141.5058  140.1090  167.6651 C.3     1  UNL1        0.0954
      3 C         142.0910  140.2975  166.2968 C.3     1  UNL1        0.0192
      4 C         142.9405  141.4984  166.0033 C.3     1  UNL1        0.0037
      5 C         143.2048  142.5108  167.0780 C.3     1  UNL1        0.0192
      6 C         142.6197  142.3224  168.4463 C.3     1  UNL1        0.0954
      7 C         143.8090  142.5353  165.3547 C.3     1  UNL1        0.0092
      8 C         143.7680  141.7649  164.0683 C.3     1  UNL1        0.0767
      9 C         142.8995  140.7280  164.7168 C.3     1  UNL1        0.0092
     10 C         144.3531  141.9533  162.7001 C.2     1  UNL1        0.2252
     11 O         145.7769  141.5640  162.4331 O.2     1  UNL1       -0.2749
     12 N         143.5145  142.5310  161.5988 N.am    1  UNL1       -0.2767
     13 C         142.0907  142.9204  161.8657 C.3     1  UNL1        0.1107
     14 C         141.2520  143.4981  160.7644 C.3     1  UNL1        0.0939
     15 N         141.8372  143.6865  159.3962 N.3     1  UNL1       -0.2711
     16 C         143.2609  143.2973  159.1292 C.3     1  UNL1        0.0939
     17 C         144.0996  142.7195  160.2305 C.3     1  UNL1        0.1107
     18 C         140.9985  144.2643  158.2948 C.3     1  UNL1        0.0576
     19 C         139.8105  143.7949  157.5087 C.3     1  UNL1        0.0160
     20 C         139.8125  145.0814  156.7374 C.3     1  UNL1        0.0028
     21 C         141.0005  145.5509  157.5236 C.3     1  UNL1        0.0160
     22 C         140.5999  140.7446  171.4763 C.3     1  UNL1        0.1960
     23 S         141.1850  140.9330  170.1080 S.O2    1  UNL1        0.0457
     24 O         140.6174  139.6112  169.6832 O.2     1  UNL1       -0.1572
     25 O         141.7527  142.2549  170.5328 O.2     1  UNL1       -0.1572
@<TRIPOS>BOND
     1    22    23    1
     2    23    24    2
     3    23    25    2
     4    23     1    1
     5     1     2    1
     6     2     3    1
     7     3     4    1
     8     4     5    1
     9     5     6    1
    10     4     7    1
    11     7     8    1
    12     8    10    1
    13    10    11    2
    14    10    12   am
    15    12    13    1
    16    13    14    1
    17    14    15    1
    18    15    18    1
    19    18    19    1
    20    19    20    1
    21    20    21    1
    22    15    16    1
    23    16    17    1
    24     8     9    1
    25     6     1    1
    26    17    12    1
    27     9     4    1
    28    21    18    1
@<TRIPOS>MOLECULE
*****
 25 28 0 0 0
SMALL
GASTEIGER

@<TRIPOS>ATOM
      1 N         140.1626  141.1305  168.4855 N.3     1  UNL1       -0.1594
      2 C         140.5691  142.4966  168.0183 C.3     1  UNL1        0.0954
      3 C         140.3410  142.9000  166.5916 C.3     1  UNL1        0.0192
      4 C         139.7066  141.9373  165.6322 C.3     1  UNL1        0.0037
      5 C         139.3001  140.5711  166.0995 C.3     1  UNL1        0.0192
      6 C         139.5281  140.1677  167.5261 C.3     1  UNL1        0.0954
      7 C         139.1203  141.2717  164.4225 C.3     1  UNL1        0.0092
      8 C         139.3841  142.5078  163.6147 C.3     1  UNL1        0.0767
      9 C         139.9703  143.1734  164.8244 C.3     1  UNL1        0.0092
     10 C         139.1561  142.9112  162.1881 C.2     1  UNL1        0.2252
     11 O         137.8403  143.5026  161.7770 O.2     1  UNL1       -0.2749
     12 N         140.2438  142.7231  161.1725 N.am    1  UNL1       -0.2767
     13 C         141.5596  142.1317  161.5835 C.3     1  UNL1        0.1107
     14 C         142.6473  141.9437  160.5679 C.3     1  UNL1        0.0939
     15 N         142.4193  142.3471  159.1413 N.3     1  UNL1       -0.2711
     16 C         141.1036  142.9385  158.7302 C.3     1  UNL1        0.0939
     17 C         140.0158  143.1266  159.7458 C.3     1  UNL1        0.1107
     18 C         143.5071  142.1590  158.1257 C.3     1  UNL1        0.0576
     19 C         143.5797  141.5791  156.7443 C.3     1  UNL1        0.0160
     20 C         145.0455  141.8931  156.6895 C.3     1  UNL1        0.0028
     21 C         144.9728  142.4730  158.0709 C.3     1  UNL1        0.0160
     22 C         140.6186  140.3237  171.3388 C.3     1  UNL1        0.1960
     23 S         140.3906  140.7271  169.9121 S.O2    1  UNL1        0.0457
     24 O         138.9106  140.7490  170.1549 O.2     1  UNL1       -0.1572
     25 O         141.8707  140.7052  169.6694 O.2     1  UNL1       -0.1572
@<TRIPOS>BOND
     1    22    23    1
     2    23    24    2
     3    23    25    2
     4    23     1    1
     5     1     2    1
     6     2     3    1
     7     3     4    1
     8     4     5    1
     9     5     6    1
    10     4     7    1
    11     7     8    1
    12     8    10    1
    13    10    11    2
    14    10    12   am
    15    12    13    1
    16    13    14    1
    17    14    15    1
    18    15    18    1
    19    18    19    1
    20    19    20    1
    21    20    21    1
    22    15    16    1
    23    16    17    1
    24     8     9    1
    25     6     1    1
    26    17    12    1
    27     9     4    1
    28    21    18    1
@<TRIPOS>MOLECULE
*****
 25 28 0 0 0
SMALL
GASTEIGER

@<TRIPOS>ATOM
      1 N         139.4774  152.4450  154.1105 N.3     1  UNL1       -0.1594
      2 C         138.7214  152.0317  155.3383 C.3     1  UNL1        0.0954
      3 C         138.5846  150.5778  155.6810 C.3     1  UNL1        0.0192
      4 C         139.2037  149.5372  154.7958 C.3     1  UNL1        0.0037
      5 C         139.9597  149.9504  153.5679 C.3     1  UNL1        0.0192
      6 C         140.0965  151.4043  153.2253 C.3     1  UNL1        0.0954
      7 C         139.6683  148.2529  154.1754 C.3     1  UNL1        0.0092
      8 C         139.0101  147.4810  155.2804 C.3     1  UNL1        0.0767
      9 C         138.5455  148.7652  155.9008 C.3     1  UNL1        0.0092
     10 C         138.8733  146.0271  155.6230 C.2     1  UNL1        0.2252
     11 O         137.6972  145.2450  155.1181 O.2     1  UNL1       -0.2749
     12 N         139.9125  145.3553  156.4707 N.am    1  UNL1       -0.2767
     13 C         141.0887  146.1374  156.9757 C.3     1  UNL1        0.1107
     14 C         142.1280  145.4656  157.8234 C.3     1  UNL1        0.0939
     15 N         141.9911  144.0116  158.1660 N.3     1  UNL1       -0.2711
     16 C         140.8150  143.2296  157.6610 C.3     1  UNL1        0.0939
     17 C         139.7757  143.9014  156.8133 C.3     1  UNL1        0.1107
     18 C         143.0305  143.3398  159.0137 C.3     1  UNL1        0.0576
     19 C         144.3182  142.6205  158.7416 C.3     1  UNL1        0.0160
     20 C         144.5002  142.3898  160.2126 C.3     1  UNL1        0.0028
     21 C         143.2124  143.1091  160.4847 C.3     1  UNL1        0.0160
     22 C         139.7511  155.3528  153.4251 C.3     1  UNL1        0.1960
     23 S         139.6143  153.8989  153.7678 S.O2    1  UNL1        0.0457
     24 O         138.1383  153.9775  153.5120 O.2     1  UNL1       -0.1572
     25 O         141.0902  153.8202  154.0236 O.2     1  UNL1       -0.1572
@<TRIPOS>BOND
     1    22    23    1
     2    23    24    2
     3    23    25    2
     4    23     1    1
     5     1     2    1
     6     2     3    1
     7     3     4    1
     8     4     5    1
     9     5     6    1
    10     4     7    1
    11     7     8    1
    12     8    10    1
    13    10    11    2
    14    10    12   am
    15    12    13    1
    16    13    14    1
    17    14    15    1
    18    15    18    1
    19    18    19    1
    20    19    20    1
    21    20    21    1
    22    15    16    1
    23    16    17    1
    24     8     9    1
    25     6     1    1
    26    17    12    1
    27     9     4    1
    28    21    18    1
@<TRIPOS>MOLECULE
*****
 25 28 0 0 0
SMALL
GASTEIGER

@<TRIPOS>ATOM
      1 N         141.3712  140.5032  168.6948 N.3     1  UNL1       -0.1594
      2 C         140.2083  140.8855  167.8279 C.3     1  UNL1        0.0954
      3 C         140.1459  140.4132  166.4056 C.3     1  UNL1        0.0192
      4 C         141.2464  139.5586  165.8502 C.3     1  UNL1        0.0037
      5 C         142.4092  139.1763  166.7171 C.3     1  UNL1        0.0192
      6 C         142.4716  139.6486  168.1394 C.3     1  UNL1        0.0954
      7 C         142.1263  138.7196  164.9715 C.3     1  UNL1        0.0092
      8 C         141.1582  138.8907  163.8387 C.3     1  UNL1        0.0767
      9 C         140.2782  139.7296  164.7172 C.3     1  UNL1        0.0092
     10 C         141.0958  138.4184  162.4164 C.2     1  UNL1        0.2252
     11 O         140.1882  137.2844  162.0417 O.2     1  UNL1       -0.2749
     12 N         141.9410  139.0801  161.3686 N.am    1  UNL1       -0.2767
     13 C         142.8486  140.2141  161.7432 C.3     1  UNL1        0.1107
     14 C         143.6938  140.8758  160.6955 C.3     1  UNL1        0.0939
     15 N         143.6314  140.4035  159.2731 N.3     1  UNL1       -0.2711
     16 C         142.7238  139.2695  158.8985 C.3     1  UNL1        0.0939
     17 C         141.8786  138.6078  159.9463 C.3     1  UNL1        0.1107
     18 C         144.4766  141.0653  158.2254 C.3     1  UNL1        0.0576
     19 C         145.1095  142.4163  158.0707 C.3     1  UNL1        0.0160
     20 C         145.6719  142.0010  156.7436 C.3     1  UNL1        0.0028
     21 C         145.0391  140.6499  156.8983 C.3     1  UNL1        0.0160
     22 C         141.4959  141.4478  171.5395 C.3     1  UNL1        0.1960
     23 S         141.4335  140.9755  170.1172 S.O2    1  UNL1        0.0457
     24 O         142.9099  140.7111  170.1402 O.2     1  UNL1       -0.1572
     25 O         139.9572  141.2398  170.0942 O.2     1  UNL1       -0.1572
@<TRIPOS>BOND
     1    22    23    1
     2    23    24    2
     3    23    25    2
     4    23     1    1
     5     1     2    1
     6     2     3    1
     7     3     4    1
     8     4     5    1
     9     5     6    1
    10     4     7    1
    11     7     8    1
    12     8    10    1
    13    10    11    2
    14    10    12   am
    15    12    13    1
    16    13    14    1
    17    14    15    1
    18    15    18    1
    19    18    19    1
    20    19    20    1
    21    20    21    1
    22    15    16    1
    23    16    17    1
    24     8     9    1
    25     6     1    1
    26    17    12    1
    27     9     4    1
    28    21    18    1
@<TRIPOS>MOLECULE
*****
 25 28 0 0 0
SMALL
GASTEIGER

@<TRIPOS>ATOM
      1 N         143.5141  141.7445  160.5214 N.3     1  UNL1       -0.1594
      2 C         144.1396  141.6136  159.1643 C.3     1  UNL1        0.0954
      3 C         143.6515  140.5627  158.2117 C.3     1  UNL1        0.0192
      4 C         142.5380  139.6427  158.6162 C.3     1  UNL1        0.0037
      5 C         141.9126  139.7735  159.9732 C.3     1  UNL1        0.0192
      6 C         142.4006  140.8244  160.9258 C.3     1  UNL1        0.0954
      7 C         141.4829  138.5774  158.6617 C.3     1  UNL1        0.0092
      8 C         141.8478  138.1565  157.2690 C.3     1  UNL1        0.0767
      9 C         142.9029  139.2218  157.2234 C.3     1  UNL1        0.0092
     10 C         141.3598  137.1057  156.3164 C.2     1  UNL1        0.2252
     11 O         140.2855  137.4348  155.3227 O.2     1  UNL1       -0.2749
     12 N         141.9460  135.7256  156.3575 N.am    1  UNL1       -0.2767
     13 C         143.0203  135.3964  157.3513 C.3     1  UNL1        0.1107
     14 C         143.6066  134.0163  157.3924 C.3     1  UNL1        0.0939
     15 N         143.1185  132.9654  156.4398 N.3     1  UNL1       -0.2711
     16 C         142.0442  133.2946  155.4460 C.3     1  UNL1        0.0939
     17 C         141.4580  134.6747  155.4049 C.3     1  UNL1        0.1107
     18 C         143.7048  131.5853  156.4809 C.3     1  UNL1        0.0576
     19 C         144.9271  130.9346  155.9045 C.3     1  UNL1        0.0160
     20 C         144.5339  129.6336  156.5391 C.3     1  UNL1        0.0028
     21 C         143.3115  130.2844  157.1155 C.3     1  UNL1        0.0160
     22 C         144.4902  143.8462  162.4266 C.3     1  UNL1        0.1960
     23 S         144.0022  142.7953  161.4740 S.O2    1  UNL1        0.0457
     24 O         144.9959  141.8232  162.0373 O.2     1  UNL1       -0.1572
     25 O         143.0084  143.7675  160.9107 O.2     1  UNL1       -0.1572
@<TRIPOS>BOND
     1    22    23    1
     2    23    24    2
     3    23    25    2
     4    23     1    1
     5     1     2    1
     6     2     3    1
     7     3     4    1
     8     4     5    1
     9     5     6    1
    10     4     7    1
    11     7     8    1
    12     8    10    1
    13    10    11    2
    14    10    12   am
    15    12    13    1
    16    13    14    1
    17    14    15    1
    18    15    18    1
    19    18    19    1
    20    19    20    1
    21    20    21    1
    22    15    16    1
    23    16    17    1
    24     8     9    1
    25     6     1    1
    26    17    12    1
    27     9     4    1
    28    21    18    1
