@<TRIPOS>MOLECULE
*****
 30 34 0 0 0
SMALL
GASTEIGER

@<TRIPOS>ATOM
      1 C         138.8803  138.6206  162.7319 C.3     1  UNL1        0.1063
      2 N         139.2422  139.1265  164.0969 N.3     1  UNL1       -0.2704
      3 C         140.4739  139.9616  164.2850 C.3     1  UNL1        0.0722
      4 C         140.8358  140.4675  165.6499 C.3     1  UNL1        0.0191
      5 C         139.9659  140.1382  166.8268 C.3     1  UNL1        0.0226
      6 C         138.7342  139.3031  166.6387 C.3     1  UNL1        0.0191
      7 C         138.3724  138.7972  165.2737 C.3     1  UNL1        0.0722
      8 C         139.1970  139.8917  168.0909 C.3     1  UNL1        0.0232
      9 C         139.9162  140.5806  169.2128 C.3     1  UNL1        0.0913
     10 N         141.1295  141.2529  168.6419 N.pl3   1  UNL1       -0.3015
     11 C         141.1603  140.9795  167.1673 C.3     1  UNL1        0.0913
     12 C         142.1354  142.0573  169.4106 C.ar    1  UNL1        0.0978
     13 C         143.6206  141.8471  169.4075 C.ar    1  UNL1        0.0440
     14 C         144.2359  142.8730  170.3123 C.ar    1  UNL1        0.1092
     15 N         143.1310  143.7174  170.8748 N.ar    1  UNL1       -0.2064
     16 S         141.8328  143.2132  170.3174 S.2     1  UNL1        0.0279
     17 C         138.1858  139.5244  161.7569 C.3     1  UNL1        0.1483
     18 O         136.8941  139.0959  161.1260 O.3     1  UNL1       -0.3786
     19 H         136.5814  139.7907  160.5256 H       1  UNL1        0.2108
     20 C         137.3198  141.9845  163.2394 C.3     1  UNL1        0.0306
     21 C         138.3499  142.0867  162.1539 C.ar    1  UNL1       -0.0238
     22 C         138.7830  140.8567  161.4127 C.ar    1  UNL1        0.0015
     23 C         139.8131  140.9589  160.3272 C.ar    1  UNL1       -0.0020
     24 C         140.4103  142.2911  159.9829 C.ar    1  UNL1        0.0060
     25 C         139.9773  143.5211  160.7242 C.ar    1  UNL1        0.0748
     26 C         138.9471  143.4189  161.8097 C.ar    1  UNL1        0.0233
     27 C         138.7189  144.7943  162.3632 C.3     1  UNL1        0.2352
     28 O         139.6080  145.7466  161.6197 O.3     1  UNL1       -0.4404
     29 C         140.3857  144.9597  160.6068 C.2     1  UNL1        0.3413
     30 O         141.3948  145.5140  159.6453 O.2     1  UNL1       -0.2449
@<TRIPOS>BOND
     1    20    21    1
     2    21    22   ar
     3    22    17    1
     4    17    18    1
     5    17     1    1
     6     1     2    1
     7     2     3    1
     8     3     4    1
     9     4     5    1
    10     5     6    1
    11     6     7    1
    12     5     8    1
    13     8     9    1
    14     9    10    1
    15    10    12    1
    16    12    13   ar
    17    13    14   ar
    18    14    15   ar
    19    15    16   ar
    20    10    11    1
    21    22    23   ar
    22    23    24   ar
    23    24    25   ar
    24    25    26   ar
    25    26    27    1
    26    27    28    1
    27    28    29    1
    28    29    30    2
    29    26    21   ar
    30     7     2    1
    31    16    12   ar
    32    29    25    1
    33    11     5    1
    34    18    19    1
@<TRIPOS>MOLECULE
*****
 30 34 0 0 0
SMALL
GASTEIGER

@<TRIPOS>ATOM
      1 C         139.1280  137.6263  165.3020 C.3     1  UNL1        0.1063
      2 N         140.0814  137.8711  164.1700 N.3     1  UNL1       -0.2704
      3 C         139.5988  137.7895  162.7521 C.3     1  UNL1        0.0722
      4 C         140.5522  138.0343  161.6202 C.3     1  UNL1        0.0191
      5 C         141.9880  138.3606  161.9063 C.3     1  UNL1        0.0226
      6 C         142.4706  138.4422  163.3241 C.3     1  UNL1        0.0191
      7 C         141.5172  138.1974  164.4560 C.3     1  UNL1        0.0722
      8 C         143.4445  138.6950  162.0368 C.3     1  UNL1        0.0232
      9 C         144.0089  138.8551  160.6562 C.3     1  UNL1        0.0913
     10 N         142.9013  138.6196  159.6724 N.pl3   1  UNL1       -0.3015
     11 C         141.6523  138.3140  160.4450 C.3     1  UNL1        0.0913
     12 C         143.0215  138.6792  158.1785 C.ar    1  UNL1        0.0978
     13 C         142.7636  137.5484  157.2274 C.ar    1  UNL1        0.0440
     14 C         143.0034  138.0504  155.8345 C.ar    1  UNL1        0.1092
     15 N         143.4095  139.4916  155.9245 N.ar    1  UNL1       -0.2064
     16 S         143.4206  139.8802  157.3734 S.2     1  UNL1        0.0279
     17 C         138.2583  138.7404  165.8043 C.3     1  UNL1        0.1483
     18 O         137.2936  138.4914  166.9256 O.3     1  UNL1       -0.3786
     19 H         136.8129  139.3098  167.1263 H       1  UNL1        0.2108
     20 C         140.0842  140.8032  166.9922 C.3     1  UNL1        0.0306
     21 C         139.2663  141.1348  165.7793 C.ar    1  UNL1       -0.0238
     22 C         138.3534  140.1035  165.1854 C.ar    1  UNL1        0.0015
     23 C         137.5355  140.4351  163.9725 C.ar    1  UNL1       -0.0020
     24 C         137.6305  141.7981  163.3536 C.ar    1  UNL1        0.0060
     25 C         138.5434  142.8295  163.9475 C.ar    1  UNL1        0.0748
     26 C         139.3613  142.4978  165.1604 C.ar    1  UNL1        0.0233
     27 C         140.1675  143.7102  165.5214 C.3     1  UNL1        0.2352
     28 O         139.8479  144.7910  164.5317 O.3     1  UNL1       -0.4404
     29 C         138.8441  144.2467  163.5590 C.2     1  UNL1        0.3413
     30 O         138.2461  144.9893  162.4010 O.2     1  UNL1       -0.2449
@<TRIPOS>BOND
     1    20    21    1
     2    21    22   ar
     3    22    17    1
     4    17    18    1
     5    17     1    1
     6     1     2    1
     7     2     3    1
     8     3     4    1
     9     4     5    1
    10     5     6    1
    11     6     7    1
    12     5     8    1
    13     8     9    1
    14     9    10    1
    15    10    12    1
    16    12    13   ar
    17    13    14   ar
    18    14    15   ar
    19    15    16   ar
    20    10    11    1
    21    22    23   ar
    22    23    24   ar
    23    24    25   ar
    24    25    26   ar
    25    26    27    1
    26    27    28    1
    27    28    29    1
    28    29    30    2
    29    26    21   ar
    30     7     2    1
    31    16    12   ar
    32    29    25    1
    33    11     5    1
    34    18    19    1
@<TRIPOS>MOLECULE
*****
 30 34 0 0 0
SMALL
GASTEIGER

@<TRIPOS>ATOM
      1 C         138.2792  140.2400  164.8587 C.3     1  UNL1        0.1063
      2 N         138.6782  141.3622  163.9467 N.3     1  UNL1       -0.2704
      3 C         139.1762  141.0638  162.5637 C.3     1  UNL1        0.0722
      4 C         139.5751  142.1860  161.6519 C.3     1  UNL1        0.0191
      5 C         139.4759  143.6066  162.1231 C.3     1  UNL1        0.0226
      6 C         138.9779  143.9050  163.5061 C.3     1  UNL1        0.0191
      7 C         138.5790  142.7828  164.4179 C.3     1  UNL1        0.0722
      8 C         139.4314  145.0692  162.4532 C.3     1  UNL1        0.0232
      9 C         139.9174  145.8298  161.2550 C.3     1  UNL1        0.0913
     10 N         140.2622  144.8373  160.1845 N.pl3   1  UNL1       -0.3015
     11 C         139.9894  143.4634  160.7209 C.3     1  UNL1        0.0913
     12 C         140.7876  145.1618  158.8176 C.ar    1  UNL1        0.0978
     13 C         140.1404  146.0737  157.8178 C.ar    1  UNL1        0.0440
     14 C         141.0052  146.1069  156.5927 C.ar    1  UNL1        0.1092
     15 N         142.1870  145.2155  156.8352 N.ar    1  UNL1       -0.2064
     16 S         142.0525  144.6314  158.2103 S.2     1  UNL1        0.0279
     17 C         139.3087  139.5732  165.7221 C.3     1  UNL1        0.1483
     18 O         139.9634  138.3037  165.2641 O.3     1  UNL1       -0.3786
     19 H         140.5988  138.0076  165.9345 H       1  UNL1        0.2108
     20 C         141.7027  141.3696  165.9267 C.3     1  UNL1        0.0306
     21 C         140.8804  141.0741  167.1459 C.ar    1  UNL1       -0.0238
     22 C         139.6834  140.1759  167.0437 C.ar    1  UNL1        0.0015
     23 C         138.8612  139.8804  168.2629 C.ar    1  UNL1       -0.0020
     24 C         139.2359  140.4830  169.5844 C.ar    1  UNL1        0.0060
     25 C         140.4328  141.3812  169.6867 C.ar    1  UNL1        0.0748
     26 C         141.2551  141.6767  168.4674 C.ar    1  UNL1        0.0233
     27 C         142.3722  142.5922  168.8725 C.3     1  UNL1        0.2352
     28 O         142.2404  142.8624  170.3420 O.3     1  UNL1       -0.4404
     29 C         141.0418  142.1140  170.8452 C.2     1  UNL1        0.3413
     30 O         140.5401  142.1007  172.2588 O.2     1  UNL1       -0.2449
@<TRIPOS>BOND
     1    20    21    1
     2    21    22   ar
     3    22    17    1
     4    17    18    1
     5    17     1    1
     6     1     2    1
     7     2     3    1
     8     3     4    1
     9     4     5    1
    10     5     6    1
    11     6     7    1
    12     5     8    1
    13     8     9    1
    14     9    10    1
    15    10    12    1
    16    12    13   ar
    17    13    14   ar
    18    14    15   ar
    19    15    16   ar
    20    10    11    1
    21    22    23   ar
    22    23    24   ar
    23    24    25   ar
    24    25    26   ar
    25    26    27    1
    26    27    28    1
    27    28    29    1
    28    29    30    2
    29    26    21   ar
    30     7     2    1
    31    16    12   ar
    32    29    25    1
    33    11     5    1
    34    18    19    1
@<TRIPOS>MOLECULE
*****
 30 34 0 0 0
SMALL
GASTEIGER

@<TRIPOS>ATOM
      1 C         138.0749  138.5514  162.1505 C.3     1  UNL1        0.1063
      2 N         138.9191  138.8150  163.3621 N.3     1  UNL1       -0.2704
      3 C         138.3145  139.4669  164.5701 C.3     1  UNL1        0.0722
      4 C         139.1587  139.7305  165.7816 C.3     1  UNL1        0.0191
      5 C         140.6075  139.3420  165.7851 C.3     1  UNL1        0.0226
      6 C         141.2122  138.6901  164.5771 C.3     1  UNL1        0.0191
      7 C         140.3679  138.4266  163.3656 C.3     1  UNL1        0.0722
      8 C         142.0629  139.0110  165.9347 C.3     1  UNL1        0.0232
      9 C         142.4995  139.4473  167.3019 C.3     1  UNL1        0.0913
     10 N         141.3138  140.0479  167.9973 N.pl3   1  UNL1       -0.3015
     11 C         140.1446  139.9829  167.0600 C.3     1  UNL1        0.0913
     12 C         141.3000  140.6142  169.3862 C.ar    1  UNL1        0.0978
     13 C         142.1791  141.7167  169.8977 C.ar    1  UNL1        0.0440
     14 C         141.8270  141.9613  171.3351 C.ar    1  UNL1        0.1092
     15 N         140.7302  141.0100  171.7121 N.ar    1  UNL1       -0.2064
     16 S         140.4045  140.1774  170.5075 S.2     1  UNL1        0.0279
     17 C         137.7001  139.6809  161.2374 C.3     1  UNL1        0.1483
     18 O         136.6377  139.4834  160.1971 O.3     1  UNL1       -0.3786
     19 H         136.5188  140.3055  159.6962 H       1  UNL1        0.2108
     20 C         140.3585  140.1254  159.9201 C.3     1  UNL1        0.0306
     21 C         139.7169  141.2302  160.7060 C.ar    1  UNL1       -0.0238
     22 C         138.3877  141.0080  161.3646 C.ar    1  UNL1        0.0015
     23 C         137.7460  142.1128  162.1506 C.ar    1  UNL1       -0.0020
     24 C         138.4336  143.4398  162.2778 C.ar    1  UNL1        0.0060
     25 C         139.7627  143.6621  161.6192 C.ar    1  UNL1        0.0748
     26 C         140.4044  142.5572  160.8332 C.ar    1  UNL1        0.0233
     27 C         141.7100  143.0666  160.2986 C.3     1  UNL1        0.2352
     28 O         141.8753  144.4862  160.7540 O.3     1  UNL1       -0.4404
     29 C         140.6718  144.8542  161.5702 C.2     1  UNL1        0.3413
     30 O         140.4214  146.1813  162.2229 O.2     1  UNL1       -0.2449
@<TRIPOS>BOND
     1    20    21    1
     2    21    22   ar
     3    22    17    1
     4    17    18    1
     5    17     1    1
     6     1     2    1
     7     2     3    1
     8     3     4    1
     9     4     5    1
    10     5     6    1
    11     6     7    1
    12     5     8    1
    13     8     9    1
    14     9    10    1
    15    10    12    1
    16    12    13   ar
    17    13    14   ar
    18    14    15   ar
    19    15    16   ar
    20    10    11    1
    21    22    23   ar
    22    23    24   ar
    23    24    25   ar
    24    25    26   ar
    25    26    27    1
    26    27    28    1
    27    28    29    1
    28    29    30    2
    29    26    21   ar
    30     7     2    1
    31    16    12   ar
    32    29    25    1
    33    11     5    1
    34    18    19    1
@<TRIPOS>MOLECULE
*****
 30 34 0 0 0
SMALL
GASTEIGER

@<TRIPOS>ATOM
      1 C         145.5715  142.5030  164.2624 C.3     1  UNL1        0.1063
      2 N         144.9745  141.5141  163.3055 N.3     1  UNL1       -0.2704
      3 C         144.7304  141.9051  161.8781 C.3     1  UNL1        0.0722
      4 C         144.1334  140.9162  160.9212 C.3     1  UNL1        0.0191
      5 C         143.7806  139.5363  161.3917 C.3     1  UNL1        0.0226
      6 C         144.0247  139.1453  162.8191 C.3     1  UNL1        0.0191
      7 C         144.6217  140.1342  163.7760 C.3     1  UNL1        0.0722
      8 C         143.3790  138.1278  161.7158 C.3     1  UNL1        0.0232
      9 C         142.8306  137.5032  160.4671 C.3     1  UNL1        0.0913
     10 N         142.8933  138.5257  159.3713 N.pl3   1  UNL1       -0.3015
     11 C         143.4804  139.7821  159.9427 C.3     1  UNL1        0.0913
     12 C         142.4473  138.3266  157.9531 C.ar    1  UNL1        0.0978
     13 C         141.7945  139.3579  157.0811 C.ar    1  UNL1        0.0440
     14 C         141.5195  138.7299  155.7470 C.ar    1  UNL1        0.1092
     15 N         142.0022  137.3105  155.7943 N.ar    1  UNL1       -0.2064
     16 S         142.5756  137.0613  157.1578 S.2     1  UNL1        0.0279
     17 C         144.6832  143.4497  165.0139 C.3     1  UNL1        0.1483
     18 O         145.2090  144.1777  166.2154 O.3     1  UNL1       -0.3786
     19 H         144.5119  144.7448  166.5805 H       1  UNL1        0.2108
     20 C         142.4561  141.8547  166.2370 C.3     1  UNL1        0.0306
     21 C         142.1556  142.8709  165.1754 C.ar    1  UNL1       -0.0238
     22 C         143.2691  143.6684  164.5639 C.ar    1  UNL1        0.0015
     23 C         142.9685  144.6847  163.5023 C.ar    1  UNL1       -0.0020
     24 C         141.5545  144.9034  163.0523 C.ar    1  UNL1        0.0060
     25 C         140.4410  144.1059  163.6638 C.ar    1  UNL1        0.0748
     26 C         140.7415  143.0897  164.7254 C.ar    1  UNL1        0.0233
     27 C         139.4465  142.4579  165.1421 C.3     1  UNL1        0.2352
     28 O         138.3455  143.0836  164.3381 O.3     1  UNL1       -0.4404
     29 C         138.9602  144.1022  163.4245 C.2     1  UNL1        0.3413
     30 O         138.2234  144.9654  162.4437 O.2     1  UNL1       -0.2449
@<TRIPOS>BOND
     1    20    21    1
     2    21    22   ar
     3    22    17    1
     4    17    18    1
     5    17     1    1
     6     1     2    1
     7     2     3    1
     8     3     4    1
     9     4     5    1
    10     5     6    1
    11     6     7    1
    12     5     8    1
    13     8     9    1
    14     9    10    1
    15    10    12    1
    16    12    13   ar
    17    13    14   ar
    18    14    15   ar
    19    15    16   ar
    20    10    11    1
    21    22    23   ar
    22    23    24   ar
    23    24    25   ar
    24    25    26   ar
    25    26    27    1
    26    27    28    1
    27    28    29    1
    28    29    30    2
    29    26    21   ar
    30     7     2    1
    31    16    12   ar
    32    29    25    1
    33    11     5    1
    34    18    19    1
@<TRIPOS>MOLECULE
*****
 30 34 0 0 0
SMALL
GASTEIGER

@<TRIPOS>ATOM
      1 C         140.7114  137.9651  161.7213 C.3     1  UNL1        0.1063
      2 N         140.3655  138.3571  163.1273 N.3     1  UNL1       -0.2704
      3 C         141.4018  138.9942  164.0049 C.3     1  UNL1        0.0722
      4 C         141.0558  139.3861  165.4108 C.3     1  UNL1        0.0191
      5 C         139.6735  139.1409  165.9391 C.3     1  UNL1        0.0226
      6 C         138.6372  138.5039  165.0616 C.3     1  UNL1        0.0191
      7 C         138.9832  138.1119  163.6557 C.3     1  UNL1        0.0722
      8 C         138.3404  138.9592  166.6024 C.3     1  UNL1        0.0232
      9 C         138.4428  139.4894  168.0019 C.3     1  UNL1        0.0913
     10 N         139.8393  139.9988  168.2036 N.pl3   1  UNL1       -0.3015
     11 C         140.5998  139.7834  166.9287 C.3     1  UNL1        0.0913
     12 C         140.3801  140.6152  169.4594 C.ar    1  UNL1        0.0978
     13 C         141.6216  140.1905  170.1863 C.ar    1  UNL1        0.0440
     14 C         141.7833  141.0774  171.3851 C.ar    1  UNL1        0.1092
     15 N         140.6417  142.0504  171.3993 N.ar    1  UNL1       -0.2064
     16 S         139.7745  141.7646  170.2091 S.2     1  UNL1        0.0279
     17 C         140.5170  138.9431  160.6007 C.3     1  UNL1        0.1483
     18 O         140.6053  138.4794  159.1769 O.3     1  UNL1       -0.3786
     19 H         140.4564  139.2312  158.5822 H       1  UNL1        0.2108
     20 C         142.7848  140.8790  160.9317 C.3     1  UNL1        0.0306
     21 C         141.3682  141.3526  161.0694 C.ar    1  UNL1       -0.0238
     22 C         140.2344  140.3847  160.9039 C.ar    1  UNL1        0.0015
     23 C         138.8178  140.8583  161.0415 C.ar    1  UNL1       -0.0020
     24 C         138.5350  142.2999  161.3446 C.ar    1  UNL1        0.0060
     25 C         139.6689  143.2678  161.5101 C.ar    1  UNL1        0.0748
     26 C         141.0855  142.7942  161.3725 C.ar    1  UNL1        0.0233
     27 C         141.9906  143.9709  161.5873 C.3     1  UNL1        0.2352
     28 O         141.1335  145.1718  161.8577 O.3     1  UNL1       -0.4404
     29 C         139.6986  144.7372  161.8100 C.2     1  UNL1        0.3413
     30 O         138.5032  145.6176  162.0245 O.2     1  UNL1       -0.2449
@<TRIPOS>BOND
     1    20    21    1
     2    21    22   ar
     3    22    17    1
     4    17    18    1
     5    17     1    1
     6     1     2    1
     7     2     3    1
     8     3     4    1
     9     4     5    1
    10     5     6    1
    11     6     7    1
    12     5     8    1
    13     8     9    1
    14     9    10    1
    15    10    12    1
    16    12    13   ar
    17    13    14   ar
    18    14    15   ar
    19    15    16   ar
    20    10    11    1
    21    22    23   ar
    22    23    24   ar
    23    24    25   ar
    24    25    26   ar
    25    26    27    1
    26    27    28    1
    27    28    29    1
    28    29    30    2
    29    26    21   ar
    30     7     2    1
    31    16    12   ar
    32    29    25    1
    33    11     5    1
    34    18    19    1
@<TRIPOS>MOLECULE
*****
 30 34 0 0 0
SMALL
GASTEIGER

@<TRIPOS>ATOM
      1 C         139.8454  144.3425  161.7014 C.3     1  UNL1        0.1063
      2 N         139.8473  143.5787  162.9924 N.3     1  UNL1       -0.2704
      3 C         140.4220  144.2002  164.2307 C.3     1  UNL1        0.0722
      4 C         140.4239  143.4364  165.5216 C.3     1  UNL1        0.0191
      5 C         139.8510  142.0511  165.5742 C.3     1  UNL1        0.0226
      6 C         139.2764  141.4296  164.3359 C.3     1  UNL1        0.0191
      7 C         139.2745  142.1934  163.0450 C.3     1  UNL1        0.0722
      8 C         139.3161  140.6647  165.7792 C.3     1  UNL1        0.0232
      9 C         139.5227  140.2963  167.2186 C.3     1  UNL1        0.0913
     10 N         140.1852  141.4550  167.9032 N.pl3   1  UNL1       -0.3015
     11 C         140.3881  142.5395  166.8869 C.3     1  UNL1        0.0913
     12 C         140.5761  141.5181  169.3499 C.ar    1  UNL1        0.0978
     13 C         141.6685  140.7247  170.0034 C.ar    1  UNL1        0.0440
     14 C         141.7108  141.1019  171.4546 C.ar    1  UNL1        0.1092
     15 N         140.6446  142.1285  171.6980 N.ar    1  UNL1       -0.2064
     16 S         139.9433  142.3857  170.3971 S.2     1  UNL1        0.0279
     17 C         141.0232  144.2553  160.7766 C.3     1  UNL1        0.1483
     18 O         141.6761  145.5085  160.2734 O.3     1  UNL1       -0.3786
     19 H         142.4162  145.2760  159.6910 H       1  UNL1        0.2108
     20 C         143.2241  142.9467  162.3398 C.3     1  UNL1        0.0306
     21 C         142.6484  142.2605  161.1366 C.ar    1  UNL1       -0.0238
     22 C         141.5480  142.9148  160.3550 C.ar    1  UNL1        0.0015
     23 C         140.9724  142.2286  159.1517 C.ar    1  UNL1       -0.0020
     24 C         141.4972  140.8882  158.7300 C.ar    1  UNL1        0.0060
     25 C         142.5976  140.2340  159.5117 C.ar    1  UNL1        0.0748
     26 C         143.1732  140.9201  160.7149 C.ar    1  UNL1        0.0233
     27 C         144.2435  140.0368  161.2844 C.3     1  UNL1        0.2352
     28 O         144.3294  138.8048  160.4331 O.3     1  UNL1       -0.4404
     29 C         143.3122  138.9266  159.3375 C.2     1  UNL1        0.3413
     30 O         143.0546  137.9182  158.2573 O.2     1  UNL1       -0.2449
@<TRIPOS>BOND
     1    20    21    1
     2    21    22   ar
     3    22    17    1
     4    17    18    1
     5    17     1    1
     6     1     2    1
     7     2     3    1
     8     3     4    1
     9     4     5    1
    10     5     6    1
    11     6     7    1
    12     5     8    1
    13     8     9    1
    14     9    10    1
    15    10    12    1
    16    12    13   ar
    17    13    14   ar
    18    14    15   ar
    19    15    16   ar
    20    10    11    1
    21    22    23   ar
    22    23    24   ar
    23    24    25   ar
    24    25    26   ar
    25    26    27    1
    26    27    28    1
    27    28    29    1
    28    29    30    2
    29    26    21   ar
    30     7     2    1
    31    16    12   ar
    32    29    25    1
    33    11     5    1
    34    18    19    1
@<TRIPOS>MOLECULE
*****
 30 34 0 0 0
SMALL
GASTEIGER

@<TRIPOS>ATOM
      1 C         138.5297  138.8441  165.9313 C.3     1  UNL1        0.1063
      2 N         138.5879  139.0283  164.4437 N.3     1  UNL1       -0.2704
      3 C         137.9787  140.2459  163.8144 C.3     1  UNL1        0.0722
      4 C         138.0369  140.4301  162.3269 C.3     1  UNL1        0.0191
      5 C         138.7045  139.3966  161.4688 C.3     1  UNL1        0.0226
      6 C         139.3138  138.1790  162.0981 C.3     1  UNL1        0.0191
      7 C         139.2555  137.9948  163.5856 C.3     1  UNL1        0.0722
      8 C         139.3351  138.4534  160.4876 C.3     1  UNL1        0.0232
      9 C         139.1627  139.0302  159.1136 C.3     1  UNL1        0.0913
     10 N         138.4255  140.3299  159.2457 N.pl3   1  UNL1       -0.3015
     11 C         138.1423  140.5564  160.7012 C.3     1  UNL1        0.0913
     12 C         138.0394  141.2428  158.1200 C.ar    1  UNL1        0.0978
     13 C         136.9963  140.9657  157.0783 C.ar    1  UNL1        0.0440
     14 C         136.9407  142.1448  156.1527 C.ar    1  UNL1        0.1092
     15 N         137.9495  143.1507  156.6223 N.ar    1  UNL1       -0.2064
     16 S         138.6285  142.5932  157.8382 S.2     1  UNL1        0.0279
     17 C         139.5631  139.4873  166.8077 C.3     1  UNL1        0.1483
     18 O         139.3124  139.6341  168.2793 O.3     1  UNL1       -0.3786
     19 H         140.0742  140.0670  168.6955 H       1  UNL1        0.2108
     20 C         139.8639  142.3855  166.0934 C.3     1  UNL1        0.0306
     21 C         140.9979  141.4328  165.8554 C.ar    1  UNL1       -0.0238
     22 C         140.8475  139.9837  166.2126 C.ar    1  UNL1        0.0015
     23 C         141.9814  139.0310  165.9746 C.ar    1  UNL1       -0.0020
     24 C         143.2657  139.5274  165.3795 C.ar    1  UNL1        0.0060
     25 C         143.4160  140.9764  165.0223 C.ar    1  UNL1        0.0748
     26 C         142.2821  141.9291  165.2603 C.ar    1  UNL1        0.0233
     27 C         142.7196  143.2917  164.8109 C.3     1  UNL1        0.2352
     28 O         144.1238  143.1812  164.2952 O.3     1  UNL1       -0.4404
     29 C         144.5542  141.7503  164.4259 C.2     1  UNL1        0.3413
     30 O         145.8886  141.1913  164.0297 O.2     1  UNL1       -0.2449
@<TRIPOS>BOND
     1    20    21    1
     2    21    22   ar
     3    22    17    1
     4    17    18    1
     5    17     1    1
     6     1     2    1
     7     2     3    1
     8     3     4    1
     9     4     5    1
    10     5     6    1
    11     6     7    1
    12     5     8    1
    13     8     9    1
    14     9    10    1
    15    10    12    1
    16    12    13   ar
    17    13    14   ar
    18    14    15   ar
    19    15    16   ar
    20    10    11    1
    21    22    23   ar
    22    23    24   ar
    23    24    25   ar
    24    25    26   ar
    25    26    27    1
    26    27    28    1
    27    28    29    1
    28    29    30    2
    29    26    21   ar
    30     7     2    1
    31    16    12   ar
    32    29    25    1
    33    11     5    1
    34    18    19    1
@<TRIPOS>MOLECULE
*****
 30 34 0 0 0
SMALL
GASTEIGER

@<TRIPOS>ATOM
      1 C         138.3182  139.1465  165.8843 C.3     1  UNL1        0.1063
      2 N         138.5031  139.2046  164.3968 N.3     1  UNL1       -0.2704
      3 C         139.4078  138.2218  163.7145 C.3     1  UNL1        0.0722
      4 C         139.5926  138.2800  162.2271 C.3     1  UNL1        0.0191
      5 C         138.8728  139.3210  161.4220 C.3     1  UNL1        0.0226
      6 C         137.9681  140.3038  162.1043 C.3     1  UNL1        0.0191
      7 C         137.7832  140.2456  163.5917 C.3     1  UNL1        0.0722
      8 C         138.2226  140.3004  160.4904 C.3     1  UNL1        0.0232
      9 C         138.6883  139.9947  159.0976 C.3     1  UNL1        0.0913
     10 N         139.6263  138.8262  159.1685 N.pl3   1  UNL1       -0.3015
     11 C         139.7403  138.4098  160.6050 C.3     1  UNL1        0.0913
     12 C         140.3271  138.1865  158.0069 C.ar    1  UNL1        0.0978
     13 C         139.6669  137.5756  156.8065 C.ar    1  UNL1        0.0440
     14 C         140.7430  137.0569  155.8994 C.ar    1  UNL1        0.1092
     15 N         142.0683  137.3471  156.5391 N.ar    1  UNL1       -0.2064
     16 S         141.8112  138.0453  157.8416 S.2     1  UNL1        0.0279
     17 C         139.2634  139.8825  166.7869 C.3     1  UNL1        0.1483
     18 O         139.2475  139.6204  168.2637 O.3     1  UNL1       -0.3786
     19 H         139.9152  140.1743  168.6977 H       1  UNL1        0.2108
     20 C         142.0753  139.0587  166.1430 C.3     1  UNL1        0.0306
     21 C         141.6306  140.4688  165.8908 C.ar    1  UNL1       -0.0238
     22 C         140.2246  140.8807  166.2127 C.ar    1  UNL1        0.0015
     23 C         139.7799  142.2909  165.9604 C.ar    1  UNL1       -0.0020
     24 C         140.7410  143.2891  165.3862 C.ar    1  UNL1        0.0060
     25 C         142.1469  142.8772  165.0643 C.ar    1  UNL1        0.0748
     26 C         142.5917  141.4670  165.3166 C.ar    1  UNL1        0.0233
     27 C         144.0289  141.3532  164.9025 C.3     1  UNL1        0.2352
     28 O         144.4724  142.6930  164.3943 O.3     1  UNL1       -0.4404
     29 C         143.3093  143.6348  164.4943 C.2     1  UNL1        0.3413
     30 O         143.3085  145.0806  164.0945 O.2     1  UNL1       -0.2449
@<TRIPOS>BOND
     1    20    21    1
     2    21    22   ar
     3    22    17    1
     4    17    18    1
     5    17     1    1
     6     1     2    1
     7     2     3    1
     8     3     4    1
     9     4     5    1
    10     5     6    1
    11     6     7    1
    12     5     8    1
    13     8     9    1
    14     9    10    1
    15    10    12    1
    16    12    13   ar
    17    13    14   ar
    18    14    15   ar
    19    15    16   ar
    20    10    11    1
    21    22    23   ar
    22    23    24   ar
    23    24    25   ar
    24    25    26   ar
    25    26    27    1
    26    27    28    1
    27    28    29    1
    28    29    30    2
    29    26    21   ar
    30     7     2    1
    31    16    12   ar
    32    29    25    1
    33    11     5    1
    34    18    19    1
