@<TRIPOS>MOLECULE
*****
 33 36 0 0 0
SMALL
GASTEIGER

@<TRIPOS>ATOM
      1 C         137.5261  137.6920  166.9593 C.3     1  UNL1        0.0174
      2 C         138.3148  138.8139  166.3518 C.3     1  UNL1        0.0595
      3 N         138.4215  138.9341  164.8604 N.3     1  UNL1       -0.2739
      4 C         138.1122  140.2393  164.1891 C.3     1  UNL1        0.0725
      5 C         138.2189  140.3594  162.6978 C.3     1  UNL1        0.0266
      6 C         138.6349  139.1744  161.8777 C.3     1  UNL1        0.0810
      7 C         138.9442  137.8691  162.5490 C.3     1  UNL1        0.0266
      8 C         138.8375  137.7489  164.0404 C.3     1  UNL1        0.0725
      9 C         138.7416  139.2945  160.3863 C.ar    1  UNL1        0.2258
     10 N         137.7467  139.9597  159.4819 N.ar    1  UNL1       -0.1117
     11 N         138.2521  139.8469  158.0742 N.ar    1  UNL1       -0.1102
     12 C         139.5594  139.1120  158.1085 C.ar    1  UNL1        0.2422
     13 O         139.8619  138.7707  159.5375 O.2     1  UNL1       -0.4219
     14 C         140.4140  138.7774  156.9221 C.3     1  UNL1        0.1604
     15 N         140.3112  137.4250  156.2814 N.3     1  UNL1       -0.2624
     16 C         141.4520  136.4567  156.3864 C.3     1  UNL1        0.0901
     17 C         139.0677  137.0409  155.5357 C.3     1  UNL1        0.0901
     18 C         138.9970  139.8157  167.2357 C.3     1  UNL1        0.0401
     19 C         140.4757  140.0374  167.1160 C.3     1  UNL1        0.0954
     20 C         141.1791  140.9422  168.0837 C.ar    1  UNL1       -0.0045
     21 C         140.5279  142.2191  168.5257 C.ar    1  UNL1       -0.0027
     22 C         141.2314  143.1239  169.4935 C.ar    1  UNL1       -0.0003
     23 C         142.5861  142.7518  170.0190 C.ar    1  UNL1       -0.0000
     24 C         143.2374  141.4750  169.5769 C.ar    1  UNL1       -0.0003
     25 C         142.5339  140.5702  168.6093 C.ar    1  UNL1       -0.0027
     26 N         141.2509  139.3542  166.0286 N.am    1  UNL1       -0.3022
     27 C         141.7157  140.1347  164.8350 C.2     1  UNL1        0.2222
     28 O         141.4052  141.5985  164.7288 O.2     1  UNL1       -0.2751
     29 H         141.4546  138.3935  166.0984 H       1  UNL1        0.1497
     30 C         142.4909  139.4516  163.7476 C.3     1  UNL1        0.0765
     31 C         143.5554  139.8732  162.7786 C.3     1  UNL1        0.0091
     32 C         143.5872  138.4856  162.2098 C.3     1  UNL1        0.0010
     33 C         142.5227  138.0640  163.1789 C.3     1  UNL1        0.0091
@<TRIPOS>BOND
     1     1     2    1
     2     2    18    1
     3    19    18    1
     4    19    26    1
     5    26    27   am
     6    27    28    2
     7    27    30    1
     8    30    31    1
     9    31    32    1
    10    32    33    1
    11    19    20    1
    12    20    21   ar
    13    21    22   ar
    14    22    23   ar
    15    23    24   ar
    16    24    25   ar
    17     2     3    1
    18     3     4    1
    19     4     5    1
    20     5     6    1
    21     6     9    1
    22     9    10   ar
    23    10    11   ar
    24    11    12   ar
    25    12    14    1
    26    14    15    1
    27    15    16    1
    28    15    17    1
    29    12    13   ar
    30     6     7    1
    31     7     8    1
    32    33    30    1
    33    25    20   ar
    34     8     3    1
    35    13     9   ar
    36    26    29    1
@<TRIPOS>MOLECULE
*****
 33 36 0 0 0
SMALL
GASTEIGER

@<TRIPOS>ATOM
      1 C         138.8902  144.8051  165.2943 C.3     1  UNL1        0.0174
      2 C         140.0659  144.2031  164.5835 C.3     1  UNL1        0.0595
      3 N         140.3161  144.5268  163.1404 N.3     1  UNL1       -0.2739
      4 C         139.5521  145.6339  162.4767 C.3     1  UNL1        0.0725
      5 C         139.8023  145.9577  161.0336 C.3     1  UNL1        0.0266
      6 C         140.8166  145.1743  160.2542 C.3     1  UNL1        0.0810
      7 C         141.5807  144.0672  160.9179 C.3     1  UNL1        0.0266
      8 C         141.3305  143.7434  162.3610 C.3     1  UNL1        0.0725
      9 C         141.0668  145.4980  158.8111 C.ar    1  UNL1        0.2258
     10 N         142.4001  145.4889  158.1238 N.ar    1  UNL1       -0.1117
     11 N         142.1850  145.8730  156.6898 N.ar    1  UNL1       -0.1102
     12 C         140.7188  146.1194  156.4908 C.ar    1  UNL1        0.2422
     13 O         140.0278  145.8877  157.8018 O.2     1  UNL1       -0.4219
     14 C         140.0595  146.5262  155.2064 C.3     1  UNL1        0.1604
     15 N         139.6150  147.9450  155.0081 N.3     1  UNL1       -0.2624
     16 C         140.0103  148.6882  153.7665 C.3     1  UNL1        0.0901
     17 C         138.7753  148.6207  156.0513 C.3     1  UNL1        0.0901
     18 C         140.9914  143.2773  165.3159 C.3     1  UNL1        0.0401
     19 C         140.4798  141.9714  165.8477 C.3     1  UNL1        0.0954
     20 C         140.2134  141.8120  167.3152 C.ar    1  UNL1       -0.0045
     21 C         139.6833  140.5123  167.8444 C.ar    1  UNL1       -0.0027
     22 C         139.4169  140.3529  169.3120 C.ar    1  UNL1       -0.0003
     23 C         139.6804  141.4931  170.2503 C.ar    1  UNL1       -0.0000
     24 C         140.2105  142.7927  169.7211 C.ar    1  UNL1       -0.0003
     25 C         140.4770  142.9522  168.2536 C.ar    1  UNL1       -0.0027
     26 N         140.2347  140.8249  164.9120 N.am    1  UNL1       -0.3022
     27 C         138.8798  140.6353  164.2970 C.2     1  UNL1        0.2222
     28 O         137.7700  141.5923  164.6176 O.2     1  UNL1       -0.2751
     29 H         140.9631  140.1969  164.7016 H       1  UNL1        0.1497
     30 C         138.6346  139.4889  163.3613 C.3     1  UNL1        0.0765
     31 C         139.0353  138.0438  163.3265 C.3     1  UNL1        0.0091
     32 C         138.2879  137.8676  162.0380 C.3     1  UNL1        0.0010
     33 C         137.8872  139.3126  162.0727 C.3     1  UNL1        0.0091
@<TRIPOS>BOND
     1     1     2    1
     2     2    18    1
     3    19    18    1
     4    19    26    1
     5    26    27   am
     6    27    28    2
     7    27    30    1
     8    30    31    1
     9    31    32    1
    10    32    33    1
    11    19    20    1
    12    20    21   ar
    13    21    22   ar
    14    22    23   ar
    15    23    24   ar
    16    24    25   ar
    17     2     3    1
    18     3     4    1
    19     4     5    1
    20     5     6    1
    21     6     9    1
    22     9    10   ar
    23    10    11   ar
    24    11    12   ar
    25    12    14    1
    26    14    15    1
    27    15    16    1
    28    15    17    1
    29    12    13   ar
    30     6     7    1
    31     7     8    1
    32    33    30    1
    33    25    20   ar
    34     8     3    1
    35    13     9   ar
    36    26    29    1
@<TRIPOS>MOLECULE
*****
 33 36 0 0 0
SMALL
GASTEIGER

@<TRIPOS>ATOM
      1 C         143.8972  137.9636  166.5990 C.3     1  UNL1        0.0174
      2 C         142.8399  138.6368  165.7751 C.3     1  UNL1        0.0595
      3 N         142.9315  138.6195  164.2780 N.3     1  UNL1       -0.2739
      4 C         141.9308  137.8434  163.4742 C.3     1  UNL1        0.0725
      5 C         142.0224  137.8262  161.9771 C.3     1  UNL1        0.0266
      6 C         143.1148  138.5850  161.2838 C.3     1  UNL1        0.0810
      7 C         144.1156  139.3612  162.0875 C.3     1  UNL1        0.0266
      8 C         144.0240  139.3784  163.5846 C.3     1  UNL1        0.0725
      9 C         143.2064  138.5677  159.7867 C.ar    1  UNL1        0.2258
     10 N         143.8752  139.6035  158.9323 N.ar    1  UNL1       -0.1117
     11 N         143.7275  139.1875  157.4987 N.ar    1  UNL1       -0.1102
     12 C         142.9674  137.8948  157.4670 C.ar    1  UNL1        0.2422
     13 O         142.6454  137.5117  158.8811 O.2     1  UNL1       -0.4219
     14 C         142.5948  137.1210  156.2373 C.3     1  UNL1        0.1604
     15 N         142.4676  135.6277  156.3007 N.3     1  UNL1       -0.2624
     16 C         141.4290  134.9277  155.4753 C.3     1  UNL1        0.0901
     17 C         143.3791  134.8345  157.1894 C.3     1  UNL1        0.0901
     18 C         141.6909  139.3273  166.4482 C.3     1  UNL1        0.0401
     19 C         141.8002  140.7766  166.8194 C.3     1  UNL1        0.0954
     20 C         141.0668  141.3012  168.0180 C.ar    1  UNL1       -0.0045
     21 C         141.2974  142.7090  168.4816 C.ar    1  UNL1       -0.0027
     22 C         140.5639  143.2336  169.6803 C.ar    1  UNL1       -0.0003
     23 C         139.5998  142.3504  170.4153 C.ar    1  UNL1       -0.0000
     24 C         139.3691  140.9426  169.9518 C.ar    1  UNL1       -0.0003
     25 C         140.1026  140.4180  168.7532 C.ar    1  UNL1       -0.0027
     26 N         142.6431  141.7012  165.9918 N.am    1  UNL1       -0.3022
     27 C         142.0037  142.5614  164.9424 C.2     1  UNL1        0.2222
     28 O         140.5216  142.4969  164.7205 O.2     1  UNL1       -0.2751
     29 H         143.6158  141.7435  166.1375 H       1  UNL1        0.1497
     30 C         142.8465  143.4860  164.1148 C.3     1  UNL1        0.0765
     31 C         144.1942  143.3946  163.4627 C.3     1  UNL1        0.0091
     32 C         144.0383  144.7936  162.9445 C.3     1  UNL1        0.0010
     33 C         142.6906  144.8849  163.5966 C.3     1  UNL1        0.0091
@<TRIPOS>BOND
     1     1     2    1
     2     2    18    1
     3    19    18    1
     4    19    26    1
     5    26    27   am
     6    27    28    2
     7    27    30    1
     8    30    31    1
     9    31    32    1
    10    32    33    1
    11    19    20    1
    12    20    21   ar
    13    21    22   ar
    14    22    23   ar
    15    23    24   ar
    16    24    25   ar
    17     2     3    1
    18     3     4    1
    19     4     5    1
    20     5     6    1
    21     6     9    1
    22     9    10   ar
    23    10    11   ar
    24    11    12   ar
    25    12    14    1
    26    14    15    1
    27    15    16    1
    28    15    17    1
    29    12    13   ar
    30     6     7    1
    31     7     8    1
    32    33    30    1
    33    25    20   ar
    34     8     3    1
    35    13     9   ar
    36    26    29    1
@<TRIPOS>MOLECULE
*****
 33 36 0 0 0
SMALL
GASTEIGER

@<TRIPOS>ATOM
      1 C         138.0950  138.8101  166.3833 C.3     1  UNL1        0.0174
      2 C         139.1067  139.7537  165.8037 C.3     1  UNL1        0.0595
      3 N         138.9548  140.2428  164.3938 N.3     1  UNL1       -0.2739
      4 C         140.0648  140.0395  163.4057 C.3     1  UNL1        0.0725
      5 C         139.9129  140.5287  161.9959 C.3     1  UNL1        0.0266
      6 C         138.6509  141.2212  161.5742 C.3     1  UNL1        0.0810
      7 C         137.5408  141.4245  162.5623 C.3     1  UNL1        0.0266
      8 C         137.6927  140.9354  163.9722 C.3     1  UNL1        0.0725
      9 C         138.4989  141.7104  160.1644 C.ar    1  UNL1        0.2258
     10 N         138.6784  143.1246  159.6976 N.ar    1  UNL1       -0.1117
     11 N         138.4312  143.1595  158.2185 N.ar    1  UNL1       -0.1102
     12 C         138.0990  141.7668  157.7711 C.ar    1  UNL1        0.2422
     13 O         138.1408  140.8713  158.9737 O.2     1  UNL1       -0.4219
     14 C         137.7808  141.3441  156.3676 C.3     1  UNL1        0.1604
     15 N         136.3885  141.5054  155.8332 N.3     1  UNL1       -0.2624
     16 C         135.2776  140.6484  156.3636 C.3     1  UNL1        0.0901
     17 C         136.1072  142.5236  154.7683 C.3     1  UNL1        0.0901
     18 C         140.2705  140.2081  166.6339 C.3     1  UNL1        0.0401
     19 C         140.5186  141.6732  166.8392 C.3     1  UNL1        0.0954
     20 C         141.2868  142.1429  168.0388 C.ar    1  UNL1       -0.0045
     21 C         140.6447  143.0755  169.0227 C.ar    1  UNL1       -0.0027
     22 C         141.4131  143.5452  170.2223 C.ar    1  UNL1       -0.0003
     23 C         142.8234  143.0822  170.4381 C.ar    1  UNL1       -0.0000
     24 C         143.4655  142.1496  169.4543 C.ar    1  UNL1       -0.0003
     25 C         142.6972  141.6799  168.2547 C.ar    1  UNL1       -0.0027
     26 N         139.9984  142.6685  165.8448 N.am    1  UNL1       -0.3022
     27 C         140.9132  143.2301  164.7970 C.2     1  UNL1        0.2222
     28 O         142.3482  142.7963  164.7437 O.2     1  UNL1       -0.2751
     29 H         139.0566  142.9532  165.8798 H       1  UNL1        0.1497
     30 C         140.3931  144.2253  163.8026 C.3     1  UNL1        0.0765
     31 C         141.0196  145.1632  162.8137 C.3     1  UNL1        0.0091
     32 C         139.6576  145.6329  162.3963 C.3     1  UNL1        0.0010
     33 C         139.0311  144.6951  163.3852 C.3     1  UNL1        0.0091
@<TRIPOS>BOND
     1     1     2    1
     2     2    18    1
     3    19    18    1
     4    19    26    1
     5    26    27   am
     6    27    28    2
     7    27    30    1
     8    30    31    1
     9    31    32    1
    10    32    33    1
    11    19    20    1
    12    20    21   ar
    13    21    22   ar
    14    22    23   ar
    15    23    24   ar
    16    24    25   ar
    17     2     3    1
    18     3     4    1
    19     4     5    1
    20     5     6    1
    21     6     9    1
    22     9    10   ar
    23    10    11   ar
    24    11    12   ar
    25    12    14    1
    26    14    15    1
    27    15    16    1
    28    15    17    1
    29    12    13   ar
    30     6     7    1
    31     7     8    1
    32    33    30    1
    33    25    20   ar
    34     8     3    1
    35    13     9   ar
    36    26    29    1
@<TRIPOS>MOLECULE
*****
 33 36 0 0 0
SMALL
GASTEIGER

@<TRIPOS>ATOM
      1 C         138.8760  137.6540  165.3435 C.3     1  UNL1        0.0174
      2 C         139.3514  138.9061  164.6681 C.3     1  UNL1        0.0595
      3 N         140.0690  138.8229  163.3535 N.3     1  UNL1       -0.2739
      4 C         139.6186  139.6672  162.1984 C.3     1  UNL1        0.0725
      5 C         140.3363  139.5840  160.8838 C.3     1  UNL1        0.0266
      6 C         141.5044  138.6566  160.7244 C.3     1  UNL1        0.0810
      7 C         141.9548  137.8123  161.8795 C.3     1  UNL1        0.0266
      8 C         141.2372  137.8955  163.1941 C.3     1  UNL1        0.0725
      9 C         142.2220  138.5735  159.4098 C.ar    1  UNL1        0.2258
     10 N         143.4033  139.4004  158.9964 N.ar    1  UNL1       -0.1117
     11 N         143.7957  138.9868  157.6089 N.ar    1  UNL1       -0.1102
     12 C         142.8570  137.9043  157.1649 C.ar    1  UNL1        0.2422
     13 O         141.8844  137.6489  158.2779 O.2     1  UNL1       -0.4219
     14 C         142.8859  137.2008  155.8405 C.3     1  UNL1        0.1604
     15 N         141.8727  136.1382  155.5335 N.3     1  UNL1       -0.2624
     16 C         142.2129  134.6931  155.7479 C.3     1  UNL1        0.0901
     17 C         140.5193  136.5207  155.0120 C.3     1  UNL1        0.0901
     18 C         139.1092  140.2414  165.3071 C.3     1  UNL1        0.0401
     19 C         140.2321  140.9571  165.9977 C.3     1  UNL1        0.0954
     20 C         140.1037  141.3355  167.4435 C.ar    1  UNL1       -0.0045
     21 C         139.5185  140.3630  168.4242 C.ar    1  UNL1       -0.0027
     22 C         139.3901  140.7415  169.8700 C.ar    1  UNL1       -0.0003
     23 C         139.8468  142.0924  170.3350 C.ar    1  UNL1       -0.0000
     24 C         140.4320  143.0649  169.3543 C.ar    1  UNL1       -0.0003
     25 C         140.5604  142.6865  167.9086 C.ar    1  UNL1       -0.0027
     26 N         141.4834  141.2944  165.2424 N.am    1  UNL1       -0.3022
     27 C         142.7275  140.4830  165.4518 C.2     1  UNL1        0.2222
     28 O         142.7203  139.3344  166.4165 O.2     1  UNL1       -0.2751
     29 H         141.4882  142.0483  164.6092 H       1  UNL1        0.1497
     30 C         143.9789  140.8202  164.6966 C.3     1  UNL1        0.0765
     31 C         144.6423  142.0917  164.2570 C.3     1  UNL1        0.0091
     32 C         145.7485  141.2972  163.6285 C.3     1  UNL1        0.0010
     33 C         145.0851  140.0257  164.0681 C.3     1  UNL1        0.0091
@<TRIPOS>BOND
     1     1     2    1
     2     2    18    1
     3    19    18    1
     4    19    26    1
     5    26    27   am
     6    27    28    2
     7    27    30    1
     8    30    31    1
     9    31    32    1
    10    32    33    1
    11    19    20    1
    12    20    21   ar
    13    21    22   ar
    14    22    23   ar
    15    23    24   ar
    16    24    25   ar
    17     2     3    1
    18     3     4    1
    19     4     5    1
    20     5     6    1
    21     6     9    1
    22     9    10   ar
    23    10    11   ar
    24    11    12   ar
    25    12    14    1
    26    14    15    1
    27    15    16    1
    28    15    17    1
    29    12    13   ar
    30     6     7    1
    31     7     8    1
    32    33    30    1
    33    25    20   ar
    34     8     3    1
    35    13     9   ar
    36    26    29    1
@<TRIPOS>MOLECULE
*****
 33 36 0 0 0
SMALL
GASTEIGER

@<TRIPOS>ATOM
      1 C         138.9934  138.7493  163.7772 C.3     1  UNL1        0.0174
      2 C         139.1678  140.1959  164.1334 C.3     1  UNL1        0.0595
      3 N         139.5351  141.1905  163.0723 N.3     1  UNL1       -0.2739
      4 C         138.6237  142.3451  162.7788 C.3     1  UNL1        0.0725
      5 C         138.9910  143.3397  161.7178 C.3     1  UNL1        0.0266
      6 C         140.2697  143.1797  160.9502 C.3     1  UNL1        0.0810
      7 C         141.1812  142.0251  161.2437 C.3     1  UNL1        0.0266
      8 C         140.8139  141.0305  162.3048 C.3     1  UNL1        0.0725
      9 C         140.6370  144.1744  159.8892 C.ar    1  UNL1        0.2258
     10 N         141.9983  144.7640  159.6667 N.ar    1  UNL1       -0.1117
     11 N         141.9101  145.7081  158.5043 N.ar    1  UNL1       -0.1102
     12 C         140.4945  145.7018  158.0084 C.ar    1  UNL1        0.2422
     13 O         139.7077  144.7540  158.8643 O.2     1  UNL1       -0.4219
     14 C         139.9596  146.5028  156.8586 C.3     1  UNL1        0.1604
     15 N         140.4691  146.2540  155.4699 N.3     1  UNL1       -0.2624
     16 C         140.2774  147.2913  154.4035 C.3     1  UNL1        0.0901
     17 C         141.1704  144.9678  155.1476 C.3     1  UNL1        0.0901
     18 C         138.9749  140.6479  165.5506 C.3     1  UNL1        0.0401
     19 C         140.0843  141.3568  166.2693 C.3     1  UNL1        0.0954
     20 C         140.0779  141.4352  167.7672 C.ar    1  UNL1       -0.0045
     21 C         139.5814  140.2742  168.5769 C.ar    1  UNL1       -0.0027
     22 C         139.5749  140.3527  170.0749 C.ar    1  UNL1       -0.0003
     23 C         140.0650  141.5921  170.7631 C.ar    1  UNL1       -0.0000
     24 C         140.5615  142.7530  169.9535 C.ar    1  UNL1       -0.0003
     25 C         140.5679  142.6746  168.4556 C.ar    1  UNL1       -0.0027
     26 N         141.2004  141.9872  165.4901 N.am    1  UNL1       -0.3022
     27 C         141.0897  143.4147  165.0429 C.2     1  UNL1        0.2222
     28 O         139.8631  144.2118  165.3749 O.2     1  UNL1       -0.2751
     29 H         142.0054  141.4641  165.2722 H       1  UNL1        0.1497
     30 C         142.2056  144.0452  164.2637 C.3     1  UNL1        0.0765
     31 C         143.6614  143.7443  164.0633 C.3     1  UNL1        0.0091
     32 C         143.7838  144.9368  163.1617 C.3     1  UNL1        0.0010
     33 C         142.3280  145.2377  163.3620 C.3     1  UNL1        0.0091
@<TRIPOS>BOND
     1     1     2    1
     2     2    18    1
     3    19    18    1
     4    19    26    1
     5    26    27   am
     6    27    28    2
     7    27    30    1
     8    30    31    1
     9    31    32    1
    10    32    33    1
    11    19    20    1
    12    20    21   ar
    13    21    22   ar
    14    22    23   ar
    15    23    24   ar
    16    24    25   ar
    17     2     3    1
    18     3     4    1
    19     4     5    1
    20     5     6    1
    21     6     9    1
    22     9    10   ar
    23    10    11   ar
    24    11    12   ar
    25    12    14    1
    26    14    15    1
    27    15    16    1
    28    15    17    1
    29    12    13   ar
    30     6     7    1
    31     7     8    1
    32    33    30    1
    33    25    20   ar
    34     8     3    1
    35    13     9   ar
    36    26    29    1
@<TRIPOS>MOLECULE
*****
 33 36 0 0 0
SMALL
GASTEIGER

@<TRIPOS>ATOM
      1 C         145.0910  141.6158  163.9817 C.3     1  UNL1        0.0174
      2 C         144.1683  140.4331  163.9821 C.3     1  UNL1        0.0595
      3 N         143.7157  139.8345  162.6834 N.3     1  UNL1       -0.2739
      4 C         143.9061  138.3690  162.4263 C.3     1  UNL1        0.0725
      5 C         143.4535  137.7704  161.1276 C.3     1  UNL1        0.0266
      6 C         142.8105  138.6372  160.0858 C.3     1  UNL1        0.0810
      7 C         142.6202  140.1027  160.3428 C.3     1  UNL1        0.0266
      8 C         143.0728  140.7014  161.6416 C.3     1  UNL1        0.0725
      9 C         142.3580  138.0385  158.7871 C.ar    1  UNL1        0.2258
     10 N         141.1507  138.4523  157.9987 N.ar    1  UNL1       -0.1117
     11 N         141.0798  137.5905  156.7731 N.ar    1  UNL1       -0.1102
     12 C         142.2431  136.6441  156.8039 C.ar    1  UNL1        0.2422
     13 O         143.0331  136.9210  158.0486 O.2     1  UNL1       -0.4219
     14 C         142.5607  135.6035  155.7713 C.3     1  UNL1        0.1604
     15 N         142.3824  134.1492  156.0926 N.3     1  UNL1       -0.2624
     16 C         143.1954  133.5169  157.1831 C.3     1  UNL1        0.0901
     17 C         141.3911  133.3273  155.3234 C.3     1  UNL1        0.0901
     18 C         143.6982  139.8491  165.2814 C.3     1  UNL1        0.0401
     19 C         142.2357  139.8404  165.6142 C.3     1  UNL1        0.0954
     20 C         141.7927  139.8125  167.0470 C.ar    1  UNL1       -0.0045
     21 C         142.7527  139.3938  168.1208 C.ar    1  UNL1       -0.0027
     22 C         142.3096  139.3658  169.5536 C.ar    1  UNL1       -0.0003
     23 C         140.9066  139.7566  169.9126 C.ar    1  UNL1       -0.0000
     24 C         139.9466  140.1753  168.8388 C.ar    1  UNL1       -0.0003
     25 C         140.3896  140.2033  167.4060 C.ar    1  UNL1       -0.0027
     26 N         141.2160  139.8598  164.5141 N.am    1  UNL1       -0.3022
     27 C         140.6040  138.5764  164.0362 C.2     1  UNL1        0.2222
     28 O         141.0115  137.2737  164.6584 O.2     1  UNL1       -0.2751
     29 H         140.9486  140.7147  164.1058 H       1  UNL1        0.1497
     30 C         139.5844  138.5957  162.9362 C.3     1  UNL1        0.0765
     31 C         139.4968  138.0038  161.5607 C.3     1  UNL1        0.0091
     32 C         138.1425  138.6229  161.3805 C.3     1  UNL1        0.0010
     33 C         138.2301  139.2148  162.7560 C.3     1  UNL1        0.0091
@<TRIPOS>BOND
     1     1     2    1
     2     2    18    1
     3    19    18    1
     4    19    26    1
     5    26    27   am
     6    27    28    2
     7    27    30    1
     8    30    31    1
     9    31    32    1
    10    32    33    1
    11    19    20    1
    12    20    21   ar
    13    21    22   ar
    14    22    23   ar
    15    23    24   ar
    16    24    25   ar
    17     2     3    1
    18     3     4    1
    19     4     5    1
    20     5     6    1
    21     6     9    1
    22     9    10   ar
    23    10    11   ar
    24    11    12   ar
    25    12    14    1
    26    14    15    1
    27    15    16    1
    28    15    17    1
    29    12    13   ar
    30     6     7    1
    31     7     8    1
    32    33    30    1
    33    25    20   ar
    34     8     3    1
    35    13     9   ar
    36    26    29    1
@<TRIPOS>MOLECULE
*****
 33 36 0 0 0
SMALL
GASTEIGER

@<TRIPOS>ATOM
      1 C         143.6818  138.1760  166.5737 C.3     1  UNL1        0.0174
      2 C         143.2920  139.3419  165.7142 C.3     1  UNL1        0.0595
      3 N         143.2543  139.1942  164.2220 N.3     1  UNL1       -0.2739
      4 C         142.4537  138.0901  163.5976 C.3     1  UNL1        0.0725
      5 C         142.4160  137.9424  162.1054 C.3     1  UNL1        0.0266
      6 C         143.1789  138.8988  161.2375 C.3     1  UNL1        0.0810
      7 C         143.9796  140.0029  161.8619 C.3     1  UNL1        0.0266
      8 C         144.0173  140.1506  163.3541 C.3     1  UNL1        0.0725
      9 C         143.1412  138.7511  159.7453 C.ar    1  UNL1        0.2258
     10 N         144.0062  139.4858  158.7644 N.ar    1  UNL1       -0.1117
     11 N         143.6315  139.0315  157.3848 N.ar    1  UNL1       -0.1102
     12 C         142.5350  138.0160  157.5130 C.ar    1  UNL1        0.2422
     13 O         142.2320  137.8427  158.9719 O.2     1  UNL1       -0.4219
     14 C         141.8600  137.2997  156.3812 C.3     1  UNL1        0.1604
     15 N         142.1181  135.8390  156.1579 N.3     1  UNL1       -0.2624
     16 C         141.2462  135.0582  155.2198 C.3     1  UNL1        0.0901
     17 C         143.2481  135.1592  156.8726 C.3     1  UNL1        0.0901
     18 C         142.9399  140.6556  166.3470 C.3     1  UNL1        0.0401
     19 C         141.5095  141.1045  166.3970 C.3     1  UNL1        0.0954
     20 C         140.8751  141.4421  167.7136 C.ar    1  UNL1       -0.0045
     21 C         140.9256  142.8489  168.2317 C.ar    1  UNL1       -0.0027
     22 C         140.2911  143.1866  169.5483 C.ar    1  UNL1       -0.0003
     23 C         139.6061  142.1174  170.3468 C.ar    1  UNL1       -0.0000
     24 C         139.5555  140.7107  169.8288 C.ar    1  UNL1       -0.0003
     25 C         140.1900  140.3730  168.5122 C.ar    1  UNL1       -0.0027
     26 N         140.7136  141.2157  165.1304 N.am    1  UNL1       -0.3022
     27 C         139.7857  140.1079  164.7281 C.2     1  UNL1        0.2222
     28 O         139.6537  138.8890  165.5924 O.2     1  UNL1       -0.2751
     29 H         140.8002  142.0157  164.5632 H       1  UNL1        0.1497
     30 C         138.9897  140.2191  163.4616 C.3     1  UNL1        0.0765
     31 C         137.6146  140.7060  163.1123 C.3     1  UNL1        0.0091
     32 C         137.8641  140.3763  161.6704 C.3     1  UNL1        0.0010
     33 C         139.2392  139.8893  162.0197 C.3     1  UNL1        0.0091
@<TRIPOS>BOND
     1     1     2    1
     2     2    18    1
     3    19    18    1
     4    19    26    1
     5    26    27   am
     6    27    28    2
     7    27    30    1
     8    30    31    1
     9    31    32    1
    10    32    33    1
    11    19    20    1
    12    20    21   ar
    13    21    22   ar
    14    22    23   ar
    15    23    24   ar
    16    24    25   ar
    17     2     3    1
    18     3     4    1
    19     4     5    1
    20     5     6    1
    21     6     9    1
    22     9    10   ar
    23    10    11   ar
    24    11    12   ar
    25    12    14    1
    26    14    15    1
    27    15    16    1
    28    15    17    1
    29    12    13   ar
    30     6     7    1
    31     7     8    1
    32    33    30    1
    33    25    20   ar
    34     8     3    1
    35    13     9   ar
    36    26    29    1
@<TRIPOS>MOLECULE
*****
 33 36 0 0 0
SMALL
GASTEIGER

@<TRIPOS>ATOM
      1 C         138.1339  144.7793  165.1341 C.3     1  UNL1        0.0174
      2 C         138.4051  143.7298  164.0973 C.3     1  UNL1        0.0595
      3 N         138.9693  144.1212  162.7637 N.3     1  UNL1       -0.2739
      4 C         139.5609  145.4860  162.5709 C.3     1  UNL1        0.0725
      5 C         140.1251  145.8773  161.2373 C.3     1  UNL1        0.0266
      6 C         140.0977  144.9039  160.0964 C.3     1  UNL1        0.0810
      7 C         139.5060  143.5390  160.2892 C.3     1  UNL1        0.0266
      8 C         138.9418  143.1476  161.6228 C.3     1  UNL1        0.0725
      9 C         140.6619  145.2952  158.7628 C.ar    1  UNL1        0.2258
     10 N         142.1106  145.5304  158.4531 N.ar    1  UNL1       -0.1117
     11 N         142.2205  145.9007  157.0036 N.ar    1  UNL1       -0.1102
     12 C         140.8397  145.8942  156.4176 C.ar    1  UNL1        0.2422
     13 O         139.8765  145.5201  157.5048 O.2     1  UNL1       -0.4219
     14 C         140.4846  146.2071  154.9942 C.3     1  UNL1        0.1604
     15 N         139.9452  147.5601  154.6358 N.3     1  UNL1       -0.2624
     16 C         138.8717  148.1861  155.4758 C.3     1  UNL1        0.0901
     17 C         140.4794  148.2871  153.4375 C.3     1  UNL1        0.0901
     18 C         138.1120  142.2889  164.3940 C.3     1  UNL1        0.0401
     19 C         139.1334  141.4453  165.0977 C.3     1  UNL1        0.0954
     20 C         138.8522  139.9971  165.3684 C.ar    1  UNL1       -0.0045
     21 C         137.9779  139.6059  166.5228 C.ar    1  UNL1       -0.0027
     22 C         137.6967  138.1575  166.7936 C.ar    1  UNL1       -0.0003
     23 C         138.2897  137.1004  165.9100 C.ar    1  UNL1       -0.0000
     24 C         139.1640  137.4916  164.7556 C.ar    1  UNL1       -0.0003
     25 C         139.4453  138.9399  164.4848 C.ar    1  UNL1       -0.0027
     26 N         140.4361  142.0501  165.5305 N.am    1  UNL1       -0.3022
     27 C         141.6032  142.0707  164.5884 C.2     1  UNL1        0.2222
     28 O         141.4675  141.4865  163.2134 O.2     1  UNL1       -0.2751
     29 H         140.5251  142.4335  166.4329 H       1  UNL1        0.1497
     30 C         142.9058  142.6754  165.0212 C.3     1  UNL1        0.0765
     31 C         143.9998  143.4399  164.3364 C.3     1  UNL1        0.0091
     32 C         144.7481  143.5307  165.6332 C.3     1  UNL1        0.0010
     33 C         143.6542  142.7662  166.3180 C.3     1  UNL1        0.0091
@<TRIPOS>BOND
     1     1     2    1
     2     2    18    1
     3    19    18    1
     4    19    26    1
     5    26    27   am
     6    27    28    2
     7    27    30    1
     8    30    31    1
     9    31    32    1
    10    32    33    1
    11    19    20    1
    12    20    21   ar
    13    21    22   ar
    14    22    23   ar
    15    23    24   ar
    16    24    25   ar
    17     2     3    1
    18     3     4    1
    19     4     5    1
    20     5     6    1
    21     6     9    1
    22     9    10   ar
    23    10    11   ar
    24    11    12   ar
    25    12    14    1
    26    14    15    1
    27    15    16    1
    28    15    17    1
    29    12    13   ar
    30     6     7    1
    31     7     8    1
    32    33    30    1
    33    25    20   ar
    34     8     3    1
    35    13     9   ar
    36    26    29    1
