@<TRIPOS>MOLECULE
*****
 23 26 0 0 0
SMALL
GASTEIGER

@<TRIPOS>ATOM
      1 C         137.8561  139.6502  170.0050 C.3     1  UNL1        0.1726
      2 O         137.6110  139.0375  168.6580 O.3     1  UNL1       -0.4792
      3 C         138.5914  139.2577  167.5443 C.ar    1  UNL1        0.1362
      4 C         138.3464  138.6449  166.1973 C.ar    1  UNL1        0.0371
      5 C         139.3267  138.8651  165.0836 C.ar    1  UNL1        0.0098
      6 C         140.5522  139.6981  165.3169 C.ar    1  UNL1        0.0345
      7 BR        141.5326  139.9183  164.2032 Br      1  UNL1       -0.0490
      8 C         140.7973  140.3109  166.6639 C.ar    1  UNL1        0.0073
      9 C         139.8168  140.0906  167.7777 C.ar    1  UNL1        0.0362
     10 C         140.0619  140.7034  169.1247 C.3     1  UNL1        0.1582
     11 C         141.1257  141.0097  168.1124 C.3     1  UNL1        0.2351
     12 O         142.1600  141.8720  168.7734 O.2     1  UNL1       -0.4478
     13 C         141.7354  142.0986  170.1941 C.2     1  UNL1        0.2770
     14 N         142.4773  142.9057  171.2179 N.pl3   1  UNL1       -0.3133
     15 N         140.4387  141.3764  170.4112 N.2     1  UNL1       -0.2202
     16 C         139.0815  140.4832  170.2384 C.3     1  UNL1        0.1174
     17 C         139.0131  140.3122  169.8625 C.3     1  UNL1        0.1502
     18 O         139.0850  140.4919  170.2576 O.3     1  UNL1       -0.3532
     19 C         139.0131  140.3122  169.8625 C.3     1  UNL1        0.1502
     20 H         143.3254  143.3446  170.9786 H       1  UNL1        0.1466
     21 H         142.1161  142.9965  172.1293 H       1  UNL1        0.1466
     22 C         136.0817  138.1588  171.1786 C.3     1  UNL1        0.0038
     23 C         136.8756  139.4300  171.1187 C.3     1  UNL1        0.0438
@<TRIPOS>BOND
     1    22    23    1
     2    23     1    1
     3     1     2    1
     4     2     3    1
     5     3     4   ar
     6     4     5   ar
     7     5     6   ar
     8     6     7    1
     9     6     8   ar
    10     8     9   ar
    11     9    10    1
    12    10    11    1
    13    11    12    1
    14    12    13    1
    15    13    14    1
    16    13    15    2
    17    10    16    1
    18    16    17    1
    19    17    18    1
    20    18    19    1
    21    16     1    1
    22     9     3   ar
    23    15    10    1
    24    19    16    1
    25    14    20    1
    26    14    21    1
@<TRIPOS>MOLECULE
*****
 23 26 0 0 0
SMALL
GASTEIGER

@<TRIPOS>ATOM
      1 C         143.1528  142.3517  165.8235 C.3     1  UNL1        0.1726
      2 O         142.2689  141.5861  164.8841 O.3     1  UNL1       -0.4792
      3 C         141.1146  140.7921  165.4198 C.ar    1  UNL1        0.1362
      4 C         140.2306  140.0265  164.4804 C.ar    1  UNL1        0.0371
      5 C         139.0763  139.2325  165.0161 C.ar    1  UNL1        0.0098
      6 C         138.8059  139.2040  166.4913 C.ar    1  UNL1        0.0345
      7 BR        137.6516  138.4099  167.0270 Br      1  UNL1       -0.0490
      8 C         139.6899  139.9695  167.4307 C.ar    1  UNL1        0.0073
      9 C         140.8442  140.7636  166.8949 C.ar    1  UNL1        0.0362
     10 C         141.7282  141.5292  167.8344 C.3     1  UNL1        0.1582
     11 C         140.6172  140.7839  168.5129 C.3     1  UNL1        0.2351
     12 O         140.7237  141.0351  169.9880 O.2     1  UNL1       -0.4478
     13 C         141.9005  141.9356  170.2210 C.2     1  UNL1        0.2770
     14 N         142.3735  142.4418  171.5514 N.pl3   1  UNL1       -0.3133
     15 N         142.5213  142.2409  168.8900 N.2     1  UNL1       -0.2202
     16 C         142.8825  142.3232  167.2987 C.3     1  UNL1        0.1174
     17 C         142.6359  142.1096  167.0366 C.3     1  UNL1        0.1502
     18 O         142.8951  142.3342  167.3121 O.3     1  UNL1       -0.3532
     19 C         142.6359  142.1096  167.0366 C.3     1  UNL1        0.1502
     20 H         141.8972  142.1843  172.3737 H       1  UNL1        0.1466
     21 H         143.1602  143.0315  171.6024 H       1  UNL1        0.1466
     22 C         144.0553  144.3468  164.4252 C.3     1  UNL1        0.0038
     23 C         144.3072  143.1458  165.2878 C.3     1  UNL1        0.0438
@<TRIPOS>BOND
     1    22    23    1
     2    23     1    1
     3     1     2    1
     4     2     3    1
     5     3     4   ar
     6     4     5   ar
     7     5     6   ar
     8     6     7    1
     9     6     8   ar
    10     8     9   ar
    11     9    10    1
    12    10    11    1
    13    11    12    1
    14    12    13    1
    15    13    14    1
    16    13    15    2
    17    10    16    1
    18    16    17    1
    19    17    18    1
    20    18    19    1
    21    16     1    1
    22     9     3   ar
    23    15    10    1
    24    19    16    1
    25    14    20    1
    26    14    21    1
@<TRIPOS>MOLECULE
*****
 23 26 0 0 0
SMALL
GASTEIGER

@<TRIPOS>ATOM
      1 C         139.0965  139.6758  166.9815 C.3     1  UNL1        0.1726
      2 O         139.4150  140.2866  165.6490 O.3     1  UNL1       -0.4792
      3 C         140.6491  141.1229  165.4830 C.ar    1  UNL1        0.1362
      4 C         140.9675  141.7337  164.1506 C.ar    1  UNL1        0.0371
      5 C         142.2016  142.5700  163.9845 C.ar    1  UNL1        0.0098
      6 C         143.1174  142.7955  165.1510 C.ar    1  UNL1        0.0345
      7 BR        144.3515  143.6317  164.9850 Br      1  UNL1       -0.0490
      8 C         142.7989  142.1846  166.4835 C.ar    1  UNL1        0.0073
      9 C         141.5647  141.3483  166.6495 C.ar    1  UNL1        0.0362
     10 C         141.2463  140.7375  167.9820 C.3     1  UNL1        0.1582
     11 C         142.5098  141.5460  167.9677 C.3     1  UNL1        0.2351
     12 O         143.1037  141.5022  169.3445 O.2     1  UNL1       -0.4478
     13 C         142.2073  140.6667  170.2096 C.2     1  UNL1        0.2770
     14 N         142.4212  140.3580  171.6619 N.pl3   1  UNL1       -0.3133
     15 N         141.0594  140.1941  169.3675 N.2     1  UNL1       -0.2202
     16 C         140.0122  139.9013  168.1480 C.3     1  UNL1        0.1174
     17 C         140.1010  140.0717  167.7762 C.3     1  UNL1        0.1502
     18 O         140.0077  139.8925  168.1670 O.3     1  UNL1       -0.3532
     19 C         140.1010  140.0717  167.7762 C.3     1  UNL1        0.1502
     20 H         143.2096  140.7163  172.1303 H       1  UNL1        0.1466
     21 H         141.7733  139.7972  172.1465 H       1  UNL1        0.1466
     22 C         137.8146  137.4520  166.5796 C.3     1  UNL1        0.0038
     23 C         137.8624  138.8395  167.1475 C.3     1  UNL1        0.0438
@<TRIPOS>BOND
     1    22    23    1
     2    23     1    1
     3     1     2    1
     4     2     3    1
     5     3     4   ar
     6     4     5   ar
     7     5     6   ar
     8     6     7    1
     9     6     8   ar
    10     8     9   ar
    11     9    10    1
    12    10    11    1
    13    11    12    1
    14    12    13    1
    15    13    14    1
    16    13    15    2
    17    10    16    1
    18    16    17    1
    19    17    18    1
    20    18    19    1
    21    16     1    1
    22     9     3   ar
    23    15    10    1
    24    19    16    1
    25    14    20    1
    26    14    21    1
@<TRIPOS>MOLECULE
*****
 23 26 0 0 0
SMALL
GASTEIGER

@<TRIPOS>ATOM
      1 C         140.7937  141.0644  169.1566 C.3     1  UNL1        0.1726
      2 O         141.4625  141.9737  168.1688 O.3     1  UNL1       -0.4792
      3 C         141.0540  141.9437  166.7258 C.ar    1  UNL1        0.1362
      4 C         141.7228  142.8529  165.7379 C.ar    1  UNL1        0.0371
      5 C         141.3144  142.8229  164.2950 C.ar    1  UNL1        0.0098
      6 C         140.2370  141.8836  163.8398 C.ar    1  UNL1        0.0345
      7 BR        139.8285  141.8536  162.3968 Br      1  UNL1       -0.0490
      8 C         139.5682  140.9744  164.8277 C.ar    1  UNL1        0.0073
      9 C         139.9767  141.0044  166.2707 C.ar    1  UNL1        0.0362
     10 C         139.3079  140.0951  167.2586 C.3     1  UNL1        0.1582
     11 C         138.7962  139.9537  165.8556 C.3     1  UNL1        0.2351
     12 O         137.7251  138.9035  165.8565 O.2     1  UNL1       -0.4478
     13 C         137.5749  138.3958  167.2600 C.2     1  UNL1        0.2770
     14 N         136.6150  137.3376  167.7167 N.pl3   1  UNL1       -0.3133
     15 N         138.5531  139.1323  168.1265 N.2     1  UNL1       -0.2202
     16 C         139.7164  140.1251  168.7016 C.3     1  UNL1        0.1174
     17 C         139.9030  140.3788  168.4259 C.3     1  UNL1        0.1502
     18 O         139.7068  140.1122  168.7157 O.3     1  UNL1       -0.3532
     19 C         139.9030  140.3788  168.4259 C.3     1  UNL1        0.1502
     20 H         136.0091  136.9099  167.0691 H       1  UNL1        0.1466
     21 H         136.5908  137.0707  168.6640 H       1  UNL1        0.1466
     22 C         142.1581  142.1427  171.0869 C.3     1  UNL1        0.0038
     23 C         141.2022  141.0944  170.5997 C.3     1  UNL1        0.0438
@<TRIPOS>BOND
     1    22    23    1
     2    23     1    1
     3     1     2    1
     4     2     3    1
     5     3     4   ar
     6     4     5   ar
     7     5     6   ar
     8     6     7    1
     9     6     8   ar
    10     8     9   ar
    11     9    10    1
    12    10    11    1
    13    11    12    1
    14    12    13    1
    15    13    14    1
    16    13    15    2
    17    10    16    1
    18    16    17    1
    19    17    18    1
    20    18    19    1
    21    16     1    1
    22     9     3   ar
    23    15    10    1
    24    19    16    1
    25    14    20    1
    26    14    21    1
@<TRIPOS>MOLECULE
*****
 23 26 0 0 0
SMALL
GASTEIGER

@<TRIPOS>ATOM
      1 C         141.9111  141.7355  167.2270 C.3     1  UNL1        0.1726
      2 O         140.6304  142.4873  167.0159 O.3     1  UNL1       -0.4792
      3 C         140.4427  143.3171  165.7805 C.ar    1  UNL1        0.1362
      4 C         139.1620  144.0688  165.5694 C.ar    1  UNL1        0.0371
      5 C         138.9743  144.8987  164.3340 C.ar    1  UNL1        0.0098
      6 C         140.0674  144.9768  163.3097 C.ar    1  UNL1        0.0345
      7 BR        139.8797  145.8066  162.0744 Br      1  UNL1       -0.0490
      8 C         141.3481  144.2250  163.5209 C.ar    1  UNL1        0.0073
      9 C         141.5358  143.3952  164.7563 C.ar    1  UNL1        0.0362
     10 C         142.8165  142.6434  164.9674 C.3     1  UNL1        0.1582
     11 C         142.7732  143.4281  163.6897 C.3     1  UNL1        0.2351
     12 O         144.0748  143.2201  162.9737 O.2     1  UNL1       -0.4478
     13 C         144.9226  142.3070  163.8088 C.2     1  UNL1        0.2770
     14 N         146.3052  141.8335  163.4711 N.pl3   1  UNL1       -0.3133
     15 N         144.1449  141.9506  165.0411 N.2     1  UNL1       -0.2202
     16 C         143.0042  141.8136  166.2028 C.3     1  UNL1        0.1174
     17 C         142.6468  142.0233  166.1439 C.3     1  UNL1        0.1502
     18 O         143.0224  141.8029  166.2058 O.3     1  UNL1       -0.3532
     19 C         142.6468  142.0233  166.1439 C.3     1  UNL1        0.1502
     20 H         146.7343  142.1240  162.6340 H       1  UNL1        0.1466
     21 H         146.7836  141.2321  164.0865 H       1  UNL1        0.1466
     22 C         140.9646  140.0770  168.9887 C.3     1  UNL1        0.0038
     23 C         142.0987  140.9057  168.4624 C.3     1  UNL1        0.0438
@<TRIPOS>BOND
     1    22    23    1
     2    23     1    1
     3     1     2    1
     4     2     3    1
     5     3     4   ar
     6     4     5   ar
     7     5     6   ar
     8     6     7    1
     9     6     8   ar
    10     8     9   ar
    11     9    10    1
    12    10    11    1
    13    11    12    1
    14    12    13    1
    15    13    14    1
    16    13    15    2
    17    10    16    1
    18    16    17    1
    19    17    18    1
    20    18    19    1
    21    16     1    1
    22     9     3   ar
    23    15    10    1
    24    19    16    1
    25    14    20    1
    26    14    21    1
@<TRIPOS>MOLECULE
*****
 23 26 0 0 0
SMALL
GASTEIGER

@<TRIPOS>ATOM
      1 C         139.4115  139.5361  166.0718 C.3     1  UNL1        0.1726
      2 O         140.6773  138.7566  165.8715 O.3     1  UNL1       -0.4792
      3 C         141.9084  139.4439  165.3595 C.ar    1  UNL1        0.1362
      4 C         143.1742  138.6644  165.1593 C.ar    1  UNL1        0.0371
      5 C         144.4052  139.3517  164.6473 C.ar    1  UNL1        0.0098
      6 C         144.3704  140.8186  164.3355 C.ar    1  UNL1        0.0345
      7 BR        145.6014  141.5059  163.8235 Br      1  UNL1       -0.0490
      8 C         143.1046  141.5981  164.5358 C.ar    1  UNL1        0.0073
      9 C         141.8736  140.9107  165.0478 C.ar    1  UNL1        0.0362
     10 C         140.6078  141.6902  165.2481 C.3     1  UNL1        0.1582
     11 C         141.7536  142.5094  164.7321 C.3     1  UNL1        0.2351
     12 O         141.2750  143.9209  164.5627 O.2     1  UNL1       -0.4478
     13 C         139.8335  143.9741  164.9739 C.2     1  UNL1        0.2770
     14 N         138.9580  145.1921  164.9634 N.pl3   1  UNL1       -0.3133
     15 N         139.4211  142.5955  165.3975 N.2     1  UNL1       -0.2202
     16 C         139.3767  141.0029  165.7601 C.3     1  UNL1        0.1174
     17 C         139.7299  140.7854  165.7042 C.3     1  UNL1        0.1502
     18 O         139.3587  141.0140  165.7629 O.3     1  UNL1       -0.3532
     19 C         139.7299  140.7854  165.7042 C.3     1  UNL1        0.1502
     20 H         139.3220  146.0574  164.6667 H       1  UNL1        0.1466
     21 H         138.0195  145.1262  165.2532 H       1  UNL1        0.1466
     22 C         137.9604  137.3929  166.2974 C.3     1  UNL1        0.0038
     23 C         138.1805  138.8487  166.5838 C.3     1  UNL1        0.0438
@<TRIPOS>BOND
     1    22    23    1
     2    23     1    1
     3     1     2    1
     4     2     3    1
     5     3     4   ar
     6     4     5   ar
     7     5     6   ar
     8     6     7    1
     9     6     8   ar
    10     8     9   ar
    11     9    10    1
    12    10    11    1
    13    11    12    1
    14    12    13    1
    15    13    14    1
    16    13    15    2
    17    10    16    1
    18    16    17    1
    19    17    18    1
    20    18    19    1
    21    16     1    1
    22     9     3   ar
    23    15    10    1
    24    19    16    1
    25    14    20    1
    26    14    21    1
@<TRIPOS>MOLECULE
*****
 23 26 0 0 0
SMALL
GASTEIGER

@<TRIPOS>ATOM
      1 C         139.9307  140.0494  167.9739 C.3     1  UNL1        0.1726
      2 O         141.3530  139.5782  167.9026 O.3     1  UNL1       -0.4792
      3 C         142.0209  139.4082  166.5704 C.ar    1  UNL1        0.1362
      4 C         143.4432  138.9370  166.4991 C.ar    1  UNL1        0.0371
      5 C         144.1111  138.7670  165.1669 C.ar    1  UNL1        0.0098
      6 C         143.3568  139.0683  163.9058 C.ar    1  UNL1        0.0345
      7 BR        144.0247  138.8983  162.5736 Br      1  UNL1       -0.0490
      8 C         141.9345  139.5395  163.9771 C.ar    1  UNL1        0.0073
      9 C         141.2666  139.7095  165.3094 C.ar    1  UNL1        0.0362
     10 C         139.8443  140.1807  165.3807 C.3     1  UNL1        0.1582
     11 C         140.3772  140.0583  163.9838 C.3     1  UNL1        0.2351
     12 O         139.2868  140.4593  163.0349 O.2     1  UNL1       -0.4478
     13 C         138.0801  140.8295  163.8452 C.2     1  UNL1        0.2770
     14 N         136.7605  141.2908  163.3013 N.pl3   1  UNL1       -0.3133
     15 N         138.4246  140.6573  165.2950 N.2     1  UNL1       -0.2202
     16 C         139.1764  140.3507  166.7129 C.3     1  UNL1        0.1174
     17 C         139.5732  140.2192  166.6930 C.3     1  UNL1        0.1502
     18 O         139.1561  140.3574  166.7139 O.3     1  UNL1       -0.3532
     19 C         139.5732  140.2192  166.6930 C.3     1  UNL1        0.1502
     20 H         136.6304  141.3726  162.3289 H       1  UNL1        0.1466
     21 H         136.0245  141.5118  163.9168 H       1  UNL1        0.1466
     22 C         140.0829  140.2161  170.5622 C.3     1  UNL1        0.0038
     23 C         139.2628  140.2194  169.3062 C.3     1  UNL1        0.0438
@<TRIPOS>BOND
     1    22    23    1
     2    23     1    1
     3     1     2    1
     4     2     3    1
     5     3     4   ar
     6     4     5   ar
     7     5     6   ar
     8     6     7    1
     9     6     8   ar
    10     8     9   ar
    11     9    10    1
    12    10    11    1
    13    11    12    1
    14    12    13    1
    15    13    14    1
    16    13    15    2
    17    10    16    1
    18    16    17    1
    19    17    18    1
    20    18    19    1
    21    16     1    1
    22     9     3   ar
    23    15    10    1
    24    19    16    1
    25    14    20    1
    26    14    21    1
@<TRIPOS>MOLECULE
*****
 23 26 0 0 0
SMALL
GASTEIGER

@<TRIPOS>ATOM
      1 C         140.3335  142.2868  167.3950 C.3     1  UNL1        0.1726
      2 O         140.0139  140.8240  167.3058 O.3     1  UNL1       -0.4792
      3 C         139.5918  140.2270  165.9961 C.ar    1  UNL1        0.1362
      4 C         139.2722  138.7642  165.9069 C.ar    1  UNL1        0.0371
      5 C         138.8501  138.1672  164.5972 C.ar    1  UNL1        0.0098
      6 C         138.7476  139.0330  163.3766 C.ar    1  UNL1        0.0345
      7 BR        138.3255  138.4361  162.0669 Br      1  UNL1       -0.0490
      8 C         139.0672  140.4959  163.4658 C.ar    1  UNL1        0.0073
      9 C         139.4893  141.0928  164.7756 C.ar    1  UNL1        0.0362
     10 C         139.8089  142.5557  164.8648 C.3     1  UNL1        0.1582
     11 C         139.4022  142.1025  163.4938 C.3     1  UNL1        0.2351
     12 O         139.4371  143.2936  162.5826 O.2     1  UNL1       -0.4478
     13 C         139.8653  144.4828  163.3903 C.2     1  UNL1        0.2770
     14 N         140.0341  145.8823  162.8776 N.pl3   1  UNL1       -0.3133
     15 N         140.0951  144.0267  164.8008 N.2     1  UNL1       -0.2202
     16 C         140.2310  143.1527  166.1745 C.3     1  UNL1        0.1174
     17 C         140.1419  142.7445  166.1496 C.3     1  UNL1        0.1502
     18 O         140.2356  143.1735  166.1758 O.3     1  UNL1       -0.3532
     19 C         140.1419  142.7445  166.1496 C.3     1  UNL1        0.1502
     20 H         139.8583  146.0840  161.9301 H       1  UNL1        0.1466
     21 H         140.3207  146.5991  163.4885 H       1  UNL1        0.1466
     22 C         140.0286  142.5180  169.9648 C.3     1  UNL1        0.0038
     23 C         140.7557  142.8838  168.7048 C.3     1  UNL1        0.0438
@<TRIPOS>BOND
     1    22    23    1
     2    23     1    1
     3     1     2    1
     4     2     3    1
     5     3     4   ar
     6     4     5   ar
     7     5     6   ar
     8     6     7    1
     9     6     8   ar
    10     8     9   ar
    11     9    10    1
    12    10    11    1
    13    11    12    1
    14    12    13    1
    15    13    14    1
    16    13    15    2
    17    10    16    1
    18    16    17    1
    19    17    18    1
    20    18    19    1
    21    16     1    1
    22     9     3   ar
    23    15    10    1
    24    19    16    1
    25    14    20    1
    26    14    21    1
@<TRIPOS>MOLECULE
*****
 23 26 0 0 0
SMALL
GASTEIGER

@<TRIPOS>ATOM
      1 C         141.2316  142.1144  168.4844 C.3     1  UNL1        0.1726
      2 O         140.0267  141.2223  168.4362 O.3     1  UNL1       -0.4792
      3 C         139.8051  140.3243  167.2553 C.ar    1  UNL1        0.1362
      4 C         138.6002  139.4322  167.2071 C.ar    1  UNL1        0.0371
      5 C         138.3786  138.5342  166.0263 C.ar    1  UNL1        0.0098
      6 C         139.3620  138.5283  164.8935 C.ar    1  UNL1        0.0345
      7 BR        139.1404  137.6303  163.7127 Br      1  UNL1       -0.0490
      8 C         140.5669  139.4204  164.9417 C.ar    1  UNL1        0.0073
      9 C         140.7885  140.3184  166.1227 C.ar    1  UNL1        0.0362
     10 C         141.9934  141.2105  166.1709 C.3     1  UNL1        0.1582
     11 C         141.9051  140.3709  164.9309 C.3     1  UNL1        0.2351
     12 O         143.0949  140.6847  164.0730 O.2     1  UNL1       -0.4478
     13 C         143.9185  141.7181  164.7826 C.2     1  UNL1        0.2770
     14 N         145.1981  142.3208  164.2833 N.pl3   1  UNL1       -0.3133
     15 N         143.2377  142.0432  166.0792 N.2     1  UNL1       -0.2202
     16 C         142.2150  142.1085  167.3517 C.3     1  UNL1        0.1174
     17 C         141.8788  141.8596  167.3383 C.3     1  UNL1        0.1502
     18 O         142.2322  142.1212  167.3524 O.3     1  UNL1       -0.3532
     19 C         141.8788  141.8596  167.3383 C.3     1  UNL1        0.1502
     20 H         145.5679  142.0414  163.4148 H       1  UNL1        0.1466
     21 H         145.6682  142.9959  164.8242 H       1  UNL1        0.1466
     22 C         140.4508  144.0783  169.9955 C.3     1  UNL1        0.0038
     23 C         141.4532  143.0124  169.6653 C.3     1  UNL1        0.0438
@<TRIPOS>BOND
     1    22    23    1
     2    23     1    1
     3     1     2    1
     4     2     3    1
     5     3     4   ar
     6     4     5   ar
     7     5     6   ar
     8     6     7    1
     9     6     8   ar
    10     8     9   ar
    11     9    10    1
    12    10    11    1
    13    11    12    1
    14    12    13    1
    15    13    14    1
    16    13    15    2
    17    10    16    1
    18    16    17    1
    19    17    18    1
    20    18    19    1
    21    16     1    1
    22     9     3   ar
    23    15    10    1
    24    19    16    1
    25    14    20    1
    26    14    21    1
