@<TRIPOS>MOLECULE
*****
 36 40 0 0 0
SMALL
GASTEIGER

@<TRIPOS>ATOM
      1 C         143.8297  140.3696  161.4448 C.ar    1  UNL1        0.2221
      2 N         143.6437  139.0651  160.7279 N.ar    1  UNL1       -0.2119
      3 C         143.0311  137.8972  161.4427 C.ar    1  UNL1        0.1050
      4 C         142.6047  138.0338  162.8743 C.ar    1  UNL1        0.0596
      5 C         142.7907  139.3382  163.5911 C.ar    1  UNL1        0.1683
      6 N         143.4032  140.5061  162.8764 N.ar    1  UNL1       -0.1944
      7 N         142.3643  139.4748  165.0227 N.ar    1  UNL1       -0.2077
      8 C         143.2576  139.3674  166.2229 C.ar    1  UNL1        0.1401
      9 C         142.4151  139.5689  167.4474 C.ar    1  UNL1        0.1726
     10 C         141.0009  139.8009  167.0040 C.ar    1  UNL1        0.1147
     11 C         139.8247  140.0477  167.9016 C.3     1  UNL1        0.0573
     12 N         140.9696  139.7427  165.5055 N.ar    1  UNL1       -0.1649
     13 O         142.9012  139.5430  168.8662 O.3     1  UNL1       -0.4749
     14 C         142.7616  140.7620  169.7292 C.3     1  UNL1        0.1830
     15 C         143.3460  142.1141  169.4463 C.3     1  UNL1        0.0620
     16 C         142.9586  143.0306  170.5689 C.3     1  UNL1        0.0724
     17 N         142.1349  142.2447  171.5456 N.3     1  UNL1       -0.2944
     18 C         142.0131  140.8427  171.0266 C.3     1  UNL1        0.1127
     19 H         141.2088  142.6632  171.6328 H       1  UNL1        0.1234
     20 N         144.4423  141.5374  160.7301 N.pl3   1  UNL1       -0.2825
     21 H         145.4196  141.6556  160.7277 H       1  UNL1        0.1551
     22 C         140.3386  144.9315  160.4759 C.ar    1  UNL1        0.1554
     23 N         139.8729  145.7673  159.3207 N.ar    1  UNL1       -0.1646
     24 N         140.7838  145.5011  158.1591 N.ar    1  UNL1       -0.2487
     25 C         140.6836  146.1256  156.7990 C.3     1  UNL1        0.1537
     26 C         141.8125  144.5008  158.5964 C.ar    1  UNL1        0.0796
     27 C         142.9642  143.8651  157.8757 C.ar    1  UNL1        0.0201
     28 C         143.8407  142.8773  158.5869 C.ar    1  UNL1        0.0162
     29 C         143.5656  142.5253  160.0188 C.ar    1  UNL1        0.0506
     30 C         142.4139  143.1610  160.7395 C.ar    1  UNL1        0.0179
     31 C         141.5374  144.1488  160.0283 C.ar    1  UNL1        0.0423
     32 C         137.7381  144.2217  163.3886 C.3     1  UNL1        0.1110
     33 N         138.3616  144.2668  162.0251 N.am    1  UNL1       -0.2979
     34 C         139.7151  144.8863  161.8395 C.2     1  UNL1        0.2654
     35 O         140.4450  145.4605  163.0174 O.2     1  UNL1       -0.2684
     36 H         137.8825  143.8900  161.2520 H       1  UNL1        0.1498
@<TRIPOS>BOND
     1    32    33    1
     2    33    34   am
     3    34    35    2
     4    34    22    1
     5    22    23   ar
     6    23    24   ar
     7    24    25    1
     8    24    26   ar
     9    26    27   ar
    10    27    28   ar
    11    28    29   ar
    12    29    20    1
    13    20     1    1
    14     1     2   ar
    15     2     3   ar
    16     3     4   ar
    17     4     5   ar
    18     5     7    1
    19     7     8   ar
    20     8     9   ar
    21     9    13    1
    22    14    13    1
    23    14    15    1
    24    15    16    1
    25    16    17    1
    26    17    18    1
    27     9    10   ar
    28    10    11    1
    29    10    12   ar
    30     5     6   ar
    31    29    30   ar
    32    30    31   ar
    33    31    22   ar
    34    31    26   ar
    35     6     1   ar
    36    12     7   ar
    37    18    14    1
    38    33    36    1
    39    20    21    1
    40    17    19    1
@<TRIPOS>MOLECULE
*****
 36 40 0 0 0
SMALL
GASTEIGER

@<TRIPOS>ATOM
      1 C         138.7512  143.3940  161.8686 C.ar    1  UNL1        0.2221
      2 N         138.7782  144.8057  162.3748 N.ar    1  UNL1       -0.2119
      3 C         138.8325  145.0726  163.8499 C.ar    1  UNL1        0.1050
      4 C         138.8599  143.9278  164.8187 C.ar    1  UNL1        0.0596
      5 C         138.8330  142.5161  164.3125 C.ar    1  UNL1        0.1683
      6 N         138.7787  142.2491  162.8375 N.ar    1  UNL1       -0.1944
      7 N         138.8604  141.3713  165.2813 N.ar    1  UNL1       -0.2077
      8 C         139.6540  141.3110  166.5528 C.ar    1  UNL1        0.1401
      9 C         139.3831  139.9882  167.2060 C.ar    1  UNL1        0.1726
     10 C         138.4222  139.2309  166.3382 C.ar    1  UNL1        0.1147
     11 C         137.8795  137.8595  166.6119 C.3     1  UNL1        0.0573
     12 N         138.0992  140.0856  165.1487 N.ar    1  UNL1       -0.1649
     13 O         139.9701  139.5072  168.4999 O.3     1  UNL1       -0.4749
     14 C         140.3965  140.4964  169.5437 C.3     1  UNL1        0.1830
     15 C         141.7912  140.6846  170.0627 C.3     1  UNL1        0.0620
     16 C         141.7596  141.7757  171.0917 C.3     1  UNL1        0.0724
     17 N         140.3454  142.2617  171.2086 N.3     1  UNL1       -0.2944
     18 C         139.5029  141.4711  170.2520 C.3     1  UNL1        0.1127
     19 H         140.2994  143.2530  170.9726 H       1  UNL1        0.1234
     20 N         138.6969  143.1270  160.3936 N.pl3   1  UNL1       -0.2825
     21 H         137.8274  143.0684  159.9356 H       1  UNL1        0.1551
     22 C         143.9953  142.7062  159.9763 C.ar    1  UNL1        0.1554
     23 N         144.8344  142.5081  158.7489 N.ar    1  UNL1       -0.1646
     24 N         143.9154  142.4390  157.5654 N.ar    1  UNL1       -0.2487
     25 C         144.3306  142.2480  156.1367 C.3     1  UNL1        0.1537
     26 C         142.5083  142.5943  158.0614 C.ar    1  UNL1        0.0796
     27 C         141.1886  142.6068  157.3487 C.ar    1  UNL1        0.0201
     28 C         139.9181  142.7843  158.1261 C.ar    1  UNL1        0.0162
     29 C         139.9675  142.9495  159.6162 C.ar    1  UNL1        0.0506
     30 C         141.2872  142.9370  160.3288 C.ar    1  UNL1        0.0179
     31 C         142.5577  142.7595  159.5514 C.ar    1  UNL1        0.0423
     32 C         145.6000  141.7582  163.4802 C.3     1  UNL1        0.1110
     33 N         145.0909  141.6350  162.0745 N.am    1  UNL1       -0.2979
     34 C         144.5043  142.8293  161.3819 C.2     1  UNL1        0.2654
     35 O         144.4268  144.1467  162.0950 O.2     1  UNL1       -0.2684
     36 H         145.1418  140.7704  161.6066 H       1  UNL1        0.1498
@<TRIPOS>BOND
     1    32    33    1
     2    33    34   am
     3    34    35    2
     4    34    22    1
     5    22    23   ar
     6    23    24   ar
     7    24    25    1
     8    24    26   ar
     9    26    27   ar
    10    27    28   ar
    11    28    29   ar
    12    29    20    1
    13    20     1    1
    14     1     2   ar
    15     2     3   ar
    16     3     4   ar
    17     4     5   ar
    18     5     7    1
    19     7     8   ar
    20     8     9   ar
    21     9    13    1
    22    14    13    1
    23    14    15    1
    24    15    16    1
    25    16    17    1
    26    17    18    1
    27     9    10   ar
    28    10    11    1
    29    10    12   ar
    30     5     6   ar
    31    29    30   ar
    32    30    31   ar
    33    31    22   ar
    34    31    26   ar
    35     6     1   ar
    36    12     7   ar
    37    18    14    1
    38    33    36    1
    39    20    21    1
    40    17    19    1
@<TRIPOS>MOLECULE
*****
 36 40 0 0 0
SMALL
GASTEIGER

@<TRIPOS>ATOM
      1 C         138.6499  139.5829  162.9350 C.ar    1  UNL1        0.2221
      2 N         138.6205  138.1268  163.2943 N.ar    1  UNL1       -0.2119
      3 C         139.5862  137.5843  164.3058 C.ar    1  UNL1        0.1050
      4 C         140.5812  138.4977  164.9581 C.ar    1  UNL1        0.0596
      5 C         140.6105  139.9538  164.5989 C.ar    1  UNL1        0.1683
      6 N         139.6450  140.4964  163.5874 N.ar    1  UNL1       -0.1944
      7 N         141.6055  140.8673  165.2512 N.ar    1  UNL1       -0.2077
      8 C         141.7880  141.0623  166.7273 C.ar    1  UNL1        0.1401
      9 C         142.8879  142.0617  166.9304 C.ar    1  UNL1        0.1726
     10 C         143.3853  142.4844  165.5798 C.ar    1  UNL1        0.1147
     11 C         144.4826  143.4719  165.3136 C.3     1  UNL1        0.0573
     12 N         142.5927  141.7462  164.5420 N.ar    1  UNL1       -0.1649
     13 O         143.4005  142.5523  168.2519 O.3     1  UNL1       -0.4749
     14 C         142.7661  142.0775  169.5255 C.3     1  UNL1        0.1830
     15 C         141.6152  142.7288  170.2334 C.3     1  UNL1        0.0620
     16 C         141.3091  141.9218  171.4603 C.3     1  UNL1        0.0724
     17 N         142.2708  140.7718  171.5106 N.3     1  UNL1       -0.2944
     18 C         143.1714  140.8680  170.3149 C.3     1  UNL1        0.1127
     19 H         141.7580  139.8904  171.4876 H       1  UNL1        0.1234
     20 N         137.6843  140.1254  161.9235 N.pl3   1  UNL1       -0.2825
     21 H         136.7332  139.8750  161.9672 H       1  UNL1        0.1551
     22 C         140.0434  144.5793  160.1852 C.ar    1  UNL1        0.1554
     23 N         140.2762  145.0380  158.7761 N.ar    1  UNL1       -0.1646
     24 N         139.7147  143.9988  157.8517 N.ar    1  UNL1       -0.2487
     25 C         139.7302  144.0513  156.3527 C.3     1  UNL1        0.1537
     26 C         139.1349  142.8978  158.6893 C.ar    1  UNL1        0.0796
     27 C         138.4482  141.6149  158.3252 C.ar    1  UNL1        0.0201
     28 C         137.9647  140.6908  159.4032 C.ar    1  UNL1        0.0162
     29 C         138.1679  141.0496  160.8454 C.ar    1  UNL1        0.0506
     30 C         138.8546  142.3325  161.2096 C.ar    1  UNL1        0.0179
     31 C         139.3381  143.2566  160.1315 C.ar    1  UNL1        0.0423
     32 C         141.8442  145.4407  163.6153 C.3     1  UNL1        0.1110
     33 N         141.4422  144.7058  162.3710 N.am    1  UNL1       -0.2979
     34 C         140.4454  145.3142  161.4295 C.2     1  UNL1        0.2654
     35 O         139.8508  146.6576  161.7323 O.2     1  UNL1       -0.2684
     36 H         141.8325  143.8241  162.1723 H       1  UNL1        0.1498
@<TRIPOS>BOND
     1    32    33    1
     2    33    34   am
     3    34    35    2
     4    34    22    1
     5    22    23   ar
     6    23    24   ar
     7    24    25    1
     8    24    26   ar
     9    26    27   ar
    10    27    28   ar
    11    28    29   ar
    12    29    20    1
    13    20     1    1
    14     1     2   ar
    15     2     3   ar
    16     3     4   ar
    17     4     5   ar
    18     5     7    1
    19     7     8   ar
    20     8     9   ar
    21     9    13    1
    22    14    13    1
    23    14    15    1
    24    15    16    1
    25    16    17    1
    26    17    18    1
    27     9    10   ar
    28    10    11    1
    29    10    12   ar
    30     5     6   ar
    31    29    30   ar
    32    30    31   ar
    33    31    22   ar
    34    31    26   ar
    35     6     1   ar
    36    12     7   ar
    37    18    14    1
    38    33    36    1
    39    20    21    1
    40    17    19    1
@<TRIPOS>MOLECULE
*****
 36 40 0 0 0
SMALL
GASTEIGER

@<TRIPOS>ATOM
      1 C         140.2140  144.8149  162.0998 C.ar    1  UNL1        0.2221
      2 N         138.7426  144.9983  162.3261 N.ar    1  UNL1       -0.2119
      3 C         138.0632  144.2855  163.4576 C.ar    1  UNL1        0.1050
      4 C         138.8552  143.3893  164.3628 C.ar    1  UNL1        0.0596
      5 C         140.3266  143.2058  164.1366 C.ar    1  UNL1        0.1683
      6 N         141.0061  143.9186  163.0051 N.ar    1  UNL1       -0.1944
      7 N         141.1187  142.3096  165.0418 N.ar    1  UNL1       -0.2077
      8 C         141.4180  142.5612  166.4899 C.ar    1  UNL1        0.1401
      9 C         142.2347  141.4115  167.0010 C.ar    1  UNL1        0.1726
     10 C         142.4402  140.4494  165.8686 C.ar    1  UNL1        0.1147
     11 C         143.2017  139.1588  165.9353 C.3     1  UNL1        0.0573
     12 N         141.7504  141.0045  164.6578 N.ar    1  UNL1       -0.1649
     13 O         142.7547  141.2519  168.3988 O.3     1  UNL1       -0.4749
     14 C         141.8198  140.8695  169.5078 C.3     1  UNL1        0.1830
     15 C         140.5592  140.0699  169.3618 C.3     1  UNL1        0.0620
     16 C         139.9416  139.9259  170.7213 C.3     1  UNL1        0.0724
     17 N         140.8207  140.6365  171.7073 N.3     1  UNL1       -0.2944
     18 C         141.9815  141.2197  170.9574 C.3     1  UNL1        0.1127
     19 H         141.1578  139.9769  172.4086 H       1  UNL1        0.1234
     20 N         140.8935  145.5276  160.9683 N.pl3   1  UNL1       -0.2825
     21 H         141.4683  146.3057  161.1510 H       1  UNL1        0.1551
     22 C         139.5653  146.2458  155.8552 C.ar    1  UNL1        0.1554
     23 N         139.5642  145.2538  154.7301 N.ar    1  UNL1       -0.1646
     24 N         140.0209  143.9334  155.2760 N.ar    1  UNL1       -0.2487
     25 C         140.1684  142.6605  154.4963 C.3     1  UNL1        0.1537
     26 C         140.3042  144.1094  156.7384 C.ar    1  UNL1        0.0796
     27 C         140.7822  143.1530  157.7904 C.ar    1  UNL1        0.0201
     28 C         140.9786  143.6257  159.2003 C.ar    1  UNL1        0.0162
     29 C         140.6970  145.0549  159.5583 C.ar    1  UNL1        0.0506
     30 C         140.2190  146.0113  158.5063 C.ar    1  UNL1        0.0179
     31 C         140.0226  145.5386  157.0964 C.ar    1  UNL1        0.0423
     32 C         138.2402  149.8499  156.8580 C.3     1  UNL1        0.1110
     33 N         138.6284  148.4044  156.9568 N.am    1  UNL1       -0.2979
     34 C         139.1771  147.6914  155.7564 C.2     1  UNL1        0.2654
     35 O         139.3376  148.4240  154.4575 O.2     1  UNL1       -0.2684
     36 H         138.5230  147.9235  157.8094 H       1  UNL1        0.1498
@<TRIPOS>BOND
     1    32    33    1
     2    33    34   am
     3    34    35    2
     4    34    22    1
     5    22    23   ar
     6    23    24   ar
     7    24    25    1
     8    24    26   ar
     9    26    27   ar
    10    27    28   ar
    11    28    29   ar
    12    29    20    1
    13    20     1    1
    14     1     2   ar
    15     2     3   ar
    16     3     4   ar
    17     4     5   ar
    18     5     7    1
    19     7     8   ar
    20     8     9   ar
    21     9    13    1
    22    14    13    1
    23    14    15    1
    24    15    16    1
    25    16    17    1
    26    17    18    1
    27     9    10   ar
    28    10    11    1
    29    10    12   ar
    30     5     6   ar
    31    29    30   ar
    32    30    31   ar
    33    31    22   ar
    34    31    26   ar
    35     6     1   ar
    36    12     7   ar
    37    18    14    1
    38    33    36    1
    39    20    21    1
    40    17    19    1
@<TRIPOS>MOLECULE
*****
 36 40 0 0 0
SMALL
GASTEIGER

@<TRIPOS>ATOM
      1 C         144.3421  141.3469  161.7774 C.ar    1  UNL1        0.2221
      2 N         145.5616  141.7397  162.5575 N.ar    1  UNL1       -0.2119
      3 C         145.5917  141.5547  164.0458 C.ar    1  UNL1        0.1050
      4 C         144.4024  140.9768  164.7539 C.ar    1  UNL1        0.0596
      5 C         143.1829  140.5840  163.9739 C.ar    1  UNL1        0.1683
      6 N         143.1527  140.7690  162.4857 N.ar    1  UNL1       -0.1944
      7 N         141.9935  140.0062  164.6820 N.ar    1  UNL1       -0.2077
      8 C         141.4633  140.4431  166.0155 C.ar    1  UNL1        0.1401
      9 C         140.2676  139.5969  166.3387 C.ar    1  UNL1        0.1726
     10 C         140.0589  138.6371  165.2049 C.ar    1  UNL1        0.1147
     11 C         138.9740  137.6055  165.1115 C.3     1  UNL1        0.0573
     12 N         141.1256  138.8901  164.1811 N.ar    1  UNL1       -0.1649
     13 O         139.4281  139.6936  167.5780 O.3     1  UNL1       -0.4749
     14 C         140.0395  140.1682  168.8629 C.3     1  UNL1        0.1830
     15 C         141.3556  139.7250  169.4296 C.3     1  UNL1        0.0620
     16 C         141.5716  140.4522  170.7238 C.3     1  UNL1        0.0724
     17 N         140.3888  141.3448  170.9567 N.3     1  UNL1       -0.2944
     18 C         139.4419  141.1693  169.8067 C.3     1  UNL1        0.1127
     19 H         140.6936  142.3168  171.0089 H       1  UNL1        0.1234
     20 N         144.3119  141.5319  160.2892 N.pl3   1  UNL1       -0.2825
     21 H         144.8846  140.9764  159.7124 H       1  UNL1        0.1551
     22 C         140.2822  145.0186  160.4584 C.ar    1  UNL1        0.1554
     23 N         139.7529  145.9056  159.3707 N.ar    1  UNL1       -0.1646
     24 N         140.5697  145.6629  158.1362 N.ar    1  UNL1       -0.2487
     25 C         140.3848  146.3385  156.8098 C.3     1  UNL1        0.1537
     26 C         141.6037  144.6259  158.4609 C.ar    1  UNL1        0.0796
     27 C         142.6841  143.9928  157.6351 C.ar    1  UNL1        0.0201
     28 C         143.5868  142.9615  158.2445 C.ar    1  UNL1        0.0162
     29 C         143.4091  142.5633  159.6798 C.ar    1  UNL1        0.0506
     30 C         142.3288  143.1964  160.5055 C.ar    1  UNL1        0.0179
     31 C         141.4260  144.2277  159.8961 C.ar    1  UNL1        0.0423
     32 C         137.8592  144.3197  163.5229 C.3     1  UNL1        0.1110
     33 N         138.3820  144.4015  162.1193 N.am    1  UNL1       -0.2979
     34 C         139.7595  144.9368  161.8620 C.2     1  UNL1        0.2654
     35 O         140.6140  145.3903  163.0082 O.2     1  UNL1       -0.2684
     36 H         137.8210  144.1038  161.3670 H       1  UNL1        0.1498
@<TRIPOS>BOND
     1    32    33    1
     2    33    34   am
     3    34    35    2
     4    34    22    1
     5    22    23   ar
     6    23    24   ar
     7    24    25    1
     8    24    26   ar
     9    26    27   ar
    10    27    28   ar
    11    28    29   ar
    12    29    20    1
    13    20     1    1
    14     1     2   ar
    15     2     3   ar
    16     3     4   ar
    17     4     5   ar
    18     5     7    1
    19     7     8   ar
    20     8     9   ar
    21     9    13    1
    22    14    13    1
    23    14    15    1
    24    15    16    1
    25    16    17    1
    26    17    18    1
    27     9    10   ar
    28    10    11    1
    29    10    12   ar
    30     5     6   ar
    31    29    30   ar
    32    30    31   ar
    33    31    22   ar
    34    31    26   ar
    35     6     1   ar
    36    12     7   ar
    37    18    14    1
    38    33    36    1
    39    20    21    1
    40    17    19    1
@<TRIPOS>MOLECULE
*****
 36 40 0 0 0
SMALL
GASTEIGER

@<TRIPOS>ATOM
      1 C         138.4961  139.7177  159.1580 C.ar    1  UNL1        0.2221
      2 N         137.5392  140.3611  158.1987 N.ar    1  UNL1       -0.2119
      3 C         137.8974  140.4771  156.7466 C.ar    1  UNL1        0.1050
      4 C         139.2123  139.9497  156.2540 C.ar    1  UNL1        0.0596
      5 C         140.1691  139.3062  157.2134 C.ar    1  UNL1        0.1683
      6 N         139.8111  139.1902  158.6654 N.ar    1  UNL1       -0.1944
      7 N         141.4841  138.7787  156.7208 N.ar    1  UNL1       -0.2077
      8 C         141.9069  137.3396  156.7057 C.ar    1  UNL1        0.1401
      9 C         143.2912  137.2692  156.1323 C.ar    1  UNL1        0.1726
     10 C         143.7239  138.6649  155.7931 C.ar    1  UNL1        0.1147
     11 C         145.0421  139.0584  155.1951 C.3     1  UNL1        0.0573
     12 N         142.6070  139.5977  156.1568 N.ar    1  UNL1       -0.1649
     13 O         144.1007  136.0222  155.9332 O.3     1  UNL1       -0.4749
     14 C         143.5240  134.6870  156.3005 C.3     1  UNL1        0.1830
     15 C         142.7850  133.7623  155.3793 C.3     1  UNL1        0.0620
     16 C         142.3893  132.5459  156.1629 C.3     1  UNL1        0.0724
     17 N         142.8839  132.7190  157.5684 N.3     1  UNL1       -0.2944
     18 C         143.5852  134.0423  157.6535 C.3     1  UNL1        0.1127
     19 H         143.5330  131.9677  157.8020 H       1  UNL1        0.1234
     20 N         138.1380  139.6017  160.6100 N.pl3   1  UNL1       -0.2825
     21 H         137.7970  138.7496  160.9664 H       1  UNL1        0.1551
     22 C         139.9644  144.4661  161.8037 C.ar    1  UNL1        0.1554
     23 N         139.7795  145.2635  163.0607 N.ar    1  UNL1       -0.1646
     24 N         138.9500  144.4489  164.0085 N.ar    1  UNL1       -0.2487
     25 C         138.5231  144.8625  165.3857 C.3     1  UNL1        0.1537
     26 C         138.6222  143.1481  163.3373 C.ar    1  UNL1        0.0796
     27 C         137.8338  141.9554  163.7908 C.ar    1  UNL1        0.0201
     28 C         137.6725  140.7732  162.8818 C.ar    1  UNL1        0.0162
     29 C         138.2994  140.7839  161.5191 C.ar    1  UNL1        0.0506
     30 C         139.0878  141.9766  161.0656 C.ar    1  UNL1        0.0179
     31 C         139.2492  143.1588  161.9746 C.ar    1  UNL1        0.0423
     32 C         140.7643  145.8573  158.1739 C.3     1  UNL1        0.1110
     33 N         139.9986  145.4235  159.3886 N.am    1  UNL1       -0.2979
     34 C         140.7302  144.8999  160.5890 C.2     1  UNL1        0.2654
     35 O         142.2273  144.8103  160.5746 O.2     1  UNL1       -0.2684
     36 H         139.0159  145.4823  159.3980 H       1  UNL1        0.1498
@<TRIPOS>BOND
     1    32    33    1
     2    33    34   am
     3    34    35    2
     4    34    22    1
     5    22    23   ar
     6    23    24   ar
     7    24    25    1
     8    24    26   ar
     9    26    27   ar
    10    27    28   ar
    11    28    29   ar
    12    29    20    1
    13    20     1    1
    14     1     2   ar
    15     2     3   ar
    16     3     4   ar
    17     4     5   ar
    18     5     7    1
    19     7     8   ar
    20     8     9   ar
    21     9    13    1
    22    14    13    1
    23    14    15    1
    24    15    16    1
    25    16    17    1
    26    17    18    1
    27     9    10   ar
    28    10    11    1
    29    10    12   ar
    30     5     6   ar
    31    29    30   ar
    32    30    31   ar
    33    31    22   ar
    34    31    26   ar
    35     6     1   ar
    36    12     7   ar
    37    18    14    1
    38    33    36    1
    39    20    21    1
    40    17    19    1
@<TRIPOS>MOLECULE
*****
 36 40 0 0 0
SMALL
GASTEIGER

@<TRIPOS>ATOM
      1 C         142.4184  144.4382  162.2374 C.ar    1  UNL1        0.2221
      2 N         143.8756  144.5602  162.5719 N.ar    1  UNL1       -0.2119
      3 C         144.4264  143.8728  163.7860 C.ar    1  UNL1        0.1050
      4 C         143.5202  143.0635  164.6656 C.ar    1  UNL1        0.0596
      5 C         142.0630  142.9416  164.3312 C.ar    1  UNL1        0.1683
      6 N         141.5122  143.6289  163.1171 N.ar    1  UNL1       -0.1944
      7 N         141.1568  142.1323  165.2108 N.ar    1  UNL1       -0.2077
      8 C         141.1466  142.1398  166.7107 C.ar    1  UNL1        0.1401
      9 C         140.0851  141.1856  167.1718 C.ar    1  UNL1        0.1726
     10 C         139.4392  140.5884  165.9568 C.ar    1  UNL1        0.1147
     11 C         138.3263  139.5826  165.9543 C.3     1  UNL1        0.0573
     12 N         140.1015  141.1735  164.7448 N.ar    1  UNL1       -0.1649
     13 O         139.7316  140.8819  168.5976 O.3     1  UNL1       -0.4749
     14 C         140.8167  140.6308  169.6023 C.3     1  UNL1        0.1830
     15 C         142.0510  139.8079  169.3798 C.3     1  UNL1        0.0620
     16 C         142.8553  139.8270  170.6459 C.3     1  UNL1        0.0724
     17 N         142.1180  140.6617  171.6508 N.3     1  UNL1       -0.2944
     18 C         140.8581  141.1585  171.0058 C.3     1  UNL1        0.1127
     19 H         142.6963  141.4524  171.9351 H       1  UNL1        0.1234
     20 N         141.8676  145.1256  161.0233 N.pl3   1  UNL1       -0.2825
     21 H         141.7468  146.1027  161.0231 H       1  UNL1        0.1551
     22 C         143.0092  141.9146  156.9233 C.ar    1  UNL1        0.1554
     23 N         142.0915  141.3523  155.8785 N.ar    1  UNL1       -0.1646
     24 N         140.7056  141.8512  156.1620 N.ar    1  UNL1       -0.2487
     25 C         139.4745  141.5349  155.3653 C.3     1  UNL1        0.1537
     26 C         140.7667  142.7217  157.3820 C.ar    1  UNL1        0.0796
     27 C         139.7099  143.4838  158.1252 C.ar    1  UNL1        0.0201
     28 C         140.0769  144.2850  159.3390 C.ar    1  UNL1        0.0162
     29 C         141.5006  144.3243  159.8095 C.ar    1  UNL1        0.0506
     30 C         142.5574  143.5622  159.0663 C.ar    1  UNL1        0.0179
     31 C         142.1904  142.7609  157.8525 C.ar    1  UNL1        0.0423
     32 C         146.9225  142.5742  156.9630 C.3     1  UNL1        0.1110
     33 N         145.4453  142.8158  156.8647 N.am    1  UNL1       -0.2979
     34 C         144.4863  141.6730  157.0216 C.2     1  UNL1        0.2654
     35 O         145.0046  140.2888  157.2769 O.2     1  UNL1       -0.2684
     36 H         145.1052  143.7244  156.6971 H       1  UNL1        0.1498
@<TRIPOS>BOND
     1    32    33    1
     2    33    34   am
     3    34    35    2
     4    34    22    1
     5    22    23   ar
     6    23    24   ar
     7    24    25    1
     8    24    26   ar
     9    26    27   ar
    10    27    28   ar
    11    28    29   ar
    12    29    20    1
    13    20     1    1
    14     1     2   ar
    15     2     3   ar
    16     3     4   ar
    17     4     5   ar
    18     5     7    1
    19     7     8   ar
    20     8     9   ar
    21     9    13    1
    22    14    13    1
    23    14    15    1
    24    15    16    1
    25    16    17    1
    26    17    18    1
    27     9    10   ar
    28    10    11    1
    29    10    12   ar
    30     5     6   ar
    31    29    30   ar
    32    30    31   ar
    33    31    22   ar
    34    31    26   ar
    35     6     1   ar
    36    12     7   ar
    37    18    14    1
    38    33    36    1
    39    20    21    1
    40    17    19    1
@<TRIPOS>MOLECULE
*****
 36 40 0 0 0
SMALL
GASTEIGER

@<TRIPOS>ATOM
      1 C         143.1698  143.9502  162.0726 C.ar    1  UNL1        0.2221
      2 N         144.3242  143.3436  161.3315 N.ar    1  UNL1       -0.2119
      3 C         145.1887  142.3164  162.0007 C.ar    1  UNL1        0.1050
      4 C         144.8986  141.8960  163.4111 C.ar    1  UNL1        0.0596
      5 C         143.7442  142.5026  164.1522 C.ar    1  UNL1        0.1683
      6 N         142.8798  143.5297  163.4830 N.ar    1  UNL1       -0.1944
      7 N         143.4542  142.0822  165.5625 N.ar    1  UNL1       -0.2077
      8 C         142.9108  140.7516  165.9919 C.ar    1  UNL1        0.1401
      9 C         142.7774  140.7656  167.4858 C.ar    1  UNL1        0.1726
     10 C         143.2383  142.1048  167.9798 C.ar    1  UNL1        0.1147
     11 C         143.2747  142.5519  169.4112 C.3     1  UNL1        0.0573
     12 N         143.6566  142.9185  166.7912 N.ar    1  UNL1       -0.1649
     13 O         142.2718  139.6383  168.3365 O.3     1  UNL1       -0.4749
     14 C         141.0192  139.8110  169.1435 C.3     1  UNL1        0.1830
     15 C         139.6780  140.2223  168.6125 C.3     1  UNL1        0.0620
     16 C         138.7178  140.2683  169.7640 C.3     1  UNL1        0.0724
     17 N         139.4656  139.8853  171.0066 N.3     1  UNL1       -0.2944
     18 C         140.8880  139.6027  170.6232 C.3     1  UNL1        0.1127
     19 H         139.0465  139.0523  171.4200 H       1  UNL1        0.1234
     20 N         142.3054  144.9773  161.4034 N.pl3   1  UNL1       -0.2825
     21 H         142.3533  145.9196  161.6844 H       1  UNL1        0.1551
     22 C         138.6990  141.7302  159.1955 C.ar    1  UNL1        0.1554
     23 N         138.0031  141.8503  157.8721 N.ar    1  UNL1       -0.1646
     24 N         138.4938  143.0994  157.2021 N.ar    1  UNL1       -0.2487
     25 C         138.0613  143.6075  155.8587 C.3     1  UNL1        0.1537
     26 C         139.4929  143.7514  158.1114 C.ar    1  UNL1        0.0796
     27 C         140.3035  145.0062  157.9767 C.ar    1  UNL1        0.0201
     28 C         141.2410  145.4148  159.0741 C.ar    1  UNL1        0.0162
     29 C         141.3678  144.5686  160.3060 C.ar    1  UNL1        0.0506
     30 C         140.5572  143.3137  160.4407 C.ar    1  UNL1        0.0179
     31 C         139.6197  142.9051  159.3434 C.ar    1  UNL1        0.0423
     32 C         137.8677  139.8495  162.5900 C.3     1  UNL1        0.1110
     33 N         138.0589  140.9511  161.5900 N.am    1  UNL1       -0.2979
     34 C         138.5078  140.6286  160.1954 C.2     1  UNL1        0.2654
     35 O         138.7653  139.2046  159.8010 O.2     1  UNL1       -0.2684
     36 H         137.8899  141.8858  161.8489 H       1  UNL1        0.1498
@<TRIPOS>BOND
     1    32    33    1
     2    33    34   am
     3    34    35    2
     4    34    22    1
     5    22    23   ar
     6    23    24   ar
     7    24    25    1
     8    24    26   ar
     9    26    27   ar
    10    27    28   ar
    11    28    29   ar
    12    29    20    1
    13    20     1    1
    14     1     2   ar
    15     2     3   ar
    16     3     4   ar
    17     4     5   ar
    18     5     7    1
    19     7     8   ar
    20     8     9   ar
    21     9    13    1
    22    14    13    1
    23    14    15    1
    24    15    16    1
    25    16    17    1
    26    17    18    1
    27     9    10   ar
    28    10    11    1
    29    10    12   ar
    30     5     6   ar
    31    29    30   ar
    32    30    31   ar
    33    31    22   ar
    34    31    26   ar
    35     6     1   ar
    36    12     7   ar
    37    18    14    1
    38    33    36    1
    39    20    21    1
    40    17    19    1
@<TRIPOS>MOLECULE
*****
 36 40 0 0 0
SMALL
GASTEIGER

@<TRIPOS>ATOM
      1 C         142.2017  144.3853  161.8002 C.ar    1  UNL1        0.2221
      2 N         143.6781  144.1245  161.7536 N.ar    1  UNL1       -0.2119
      3 C         144.3001  143.1597  162.7192 C.ar    1  UNL1        0.1050
      4 C         143.4458  142.4557  163.7313 C.ar    1  UNL1        0.0596
      5 C         141.9694  142.7164  163.7779 C.ar    1  UNL1        0.1683
      6 N         141.3473  143.6812  162.8124 N.ar    1  UNL1       -0.1944
      7 N         141.1150  142.0124  164.7900 N.ar    1  UNL1       -0.2077
      8 C         141.1264  142.2494  166.2711 C.ar    1  UNL1        0.1401
      9 C         140.1177  141.3312  166.8952 C.ar    1  UNL1        0.1726
     10 C         139.4828  140.5269  165.7997 C.ar    1  UNL1        0.1147
     11 C         138.4184  139.4845  165.9747 C.3     1  UNL1        0.0573
     12 N         140.0992  140.9479  164.4987 N.ar    1  UNL1       -0.1649
     13 O         139.7996  141.2345  168.3579 O.3     1  UNL1       -0.4749
     14 C         140.8920  140.9503  169.3458 C.3     1  UNL1        0.1830
     15 C         141.8584  139.8046  169.2863 C.3     1  UNL1        0.0620
     16 C         142.7735  139.9082  170.4704 C.3     1  UNL1        0.0724
     17 N         142.3726  141.1179  171.2616 N.3     1  UNL1       -0.2944
     18 C         141.2098  141.7619  170.5666 C.3     1  UNL1        0.1127
     19 H         143.1526  141.7733  171.3110 H       1  UNL1        0.1234
     20 N         141.5796  145.3500  160.8347 N.pl3   1  UNL1       -0.2825
     21 H         141.5461  146.3099  161.0507 H       1  UNL1        0.1551
     22 C         139.4226  146.0492  156.0096 C.ar    1  UNL1        0.1554
     23 N         138.9887  145.0190  155.0094 N.ar    1  UNL1       -0.1646
     24 N         139.2631  143.6639  155.5911 N.ar    1  UNL1       -0.2487
     25 C         138.9831  142.3472  154.9293 C.3     1  UNL1        0.1537
     26 C         139.8665  143.8566  156.9508 C.ar    1  UNL1        0.0796
     27 C         140.3389  142.8802  157.9868 C.ar    1  UNL1        0.0201
     28 C         140.9100  143.3780  159.2814 C.ar    1  UNL1        0.0162
     29 C         141.0085  144.8522  159.5400 C.ar    1  UNL1        0.0506
     30 C         140.5361  145.8287  158.5040 C.ar    1  UNL1        0.0179
     31 C         139.9651  145.3308  157.2094 C.ar    1  UNL1        0.0423
     32 C         138.4643  149.8454  156.6587 C.3     1  UNL1        0.1110
     33 N         138.5567  148.3579  156.8285 N.am    1  UNL1       -0.2979
     34 C         139.3302  147.5367  155.8397 C.2     1  UNL1        0.2654
     35 O         140.0111  148.2031  154.6813 O.2     1  UNL1       -0.2684
     36 H         138.1097  147.9205  157.5889 H       1  UNL1        0.1498
@<TRIPOS>BOND
     1    32    33    1
     2    33    34   am
     3    34    35    2
     4    34    22    1
     5    22    23   ar
     6    23    24   ar
     7    24    25    1
     8    24    26   ar
     9    26    27   ar
    10    27    28   ar
    11    28    29   ar
    12    29    20    1
    13    20     1    1
    14     1     2   ar
    15     2     3   ar
    16     3     4   ar
    17     4     5   ar
    18     5     7    1
    19     7     8   ar
    20     8     9   ar
    21     9    13    1
    22    14    13    1
    23    14    15    1
    24    15    16    1
    25    16    17    1
    26    17    18    1
    27     9    10   ar
    28    10    11    1
    29    10    12   ar
    30     5     6   ar
    31    29    30   ar
    32    30    31   ar
    33    31    22   ar
    34    31    26   ar
    35     6     1   ar
    36    12     7   ar
    37    18    14    1
    38    33    36    1
    39    20    21    1
    40    17    19    1
