@<TRIPOS>MOLECULE
*****
 37 39 0 0 0
SMALL
GASTEIGER

@<TRIPOS>ATOM
      1 C         140.2009  139.9685  166.9570 C.ar    1  UNL1        0.0730
      2 C         139.9902  139.1998  165.6863 C.ar    1  UNL1        0.0322
      3 C         138.8136  138.2789  165.5531 C.ar    1  UNL1        0.0653
      4 C         137.8477  138.1268  166.6906 C.ar    1  UNL1        0.1133
      5 N         138.0584  138.8955  167.9613 N.ar    1  UNL1       -0.2367
      6 C         139.2349  139.8164  168.0945 C.ar    1  UNL1        0.1476
      7 C         139.4455  140.5851  169.3652 C.2     1  UNL1        0.2617
      8 N         139.1788  139.9329  170.6893 N.am    1  UNL1       -0.3240
      9 O         139.9228  142.0062  169.3117 O.2     1  UNL1       -0.2687
     10 H         138.8655  139.0002  170.7244 H       1  UNL1        0.1453
     11 H         139.3170  140.4374  171.5233 H       1  UNL1        0.1453
     12 N         141.3774  140.8894  167.0902 N.pl3   1  UNL1       -0.2966
     13 H         142.0334  140.7488  167.8108 H       1  UNL1        0.1537
     14 C         144.4158  143.6709  163.9230 C.3     1  UNL1        0.0521
     15 C         143.0736  143.4152  164.5421 C.ar    1  UNL1        0.0605
     16 C         141.9086  144.2945  164.1966 C.ar    1  UNL1        0.0107
     17 C         140.5664  144.0388  164.8157 C.ar    1  UNL1       -0.0159
     18 C         140.3893  142.9038  165.7802 C.ar    1  UNL1        0.0302
     19 C         141.5544  142.0245  166.1257 C.ar    1  UNL1        0.1315
     20 N         142.8966  142.2802  165.5066 N.ar    1  UNL1       -0.2349
     21 C         139.4013  144.9182  164.4702 C.3     1  UNL1        0.0533
     22 C         138.4884  144.5441  163.3404 C.3     1  UNL1        0.0925
     23 C         139.3064  145.3811  162.4022 C.3     1  UNL1        0.0297
     24 C         137.6704  143.7070  164.2785 C.3     1  UNL1        0.0297
     25 O         137.5755  144.1699  162.2105 O.3     1  UNL1       -0.3864
     26 H         137.8774  144.5996  161.3950 H       1  UNL1        0.2102
     27 N         138.6030  137.5102  164.2824 N.pl3   1  UNL1       -0.3316
     28 H         138.2445  136.5939  164.3151 H       1  UNL1        0.1468
     29 C         138.9387  138.1376  162.9619 C.3     1  UNL1        0.0833
     30 C         137.9714  139.0828  162.3131 C.3     1  UNL1        0.0208
     31 C         138.3071  139.7102  160.9926 C.3     1  UNL1        0.0018
     32 C         139.6100  139.3924  160.3208 C.3     1  UNL1        0.0015
     33 C         140.5773  138.4471  160.9696 C.3     1  UNL1        0.0172
     34 C         140.2417  137.8197  162.2901 C.3     1  UNL1        0.0689
     35 N         141.2090  136.8745  162.9389 N.3     1  UNL1       -0.3209
     36 H         140.8217  136.5457  163.8234 H       1  UNL1        0.1189
     37 H         142.0910  137.3565  163.1123 H       1  UNL1        0.1189
@<TRIPOS>BOND
     1    14    15    1
     2    15    16   ar
     3    16    17   ar
     4    17    21    1
     5    21    22    1
     6    22    23    1
     7    22    24    1
     8    22    25    1
     9    17    18   ar
    10    18    19   ar
    11    19    12    1
    12    12     1    1
    13     1     2   ar
    14     2     3   ar
    15     3    27    1
    16    29    27    1
    17    29    30    1
    18    30    31    1
    19    31    32    1
    20    32    33    1
    21    33    34    1
    22    34    35    1
    23     3     4   ar
    24     4     5   ar
    25     5     6   ar
    26     6     7    1
    27     7     8   am
    28     7     9    2
    29    19    20   ar
    30    20    15   ar
    31     6     1   ar
    32    34    29    1
    33    25    26    1
    34    12    13    1
    35    27    28    1
    36    35    36    1
    37    35    37    1
    38     8    10    1
    39     8    11    1
@<TRIPOS>MOLECULE
*****
 37 39 0 0 0
SMALL
GASTEIGER

@<TRIPOS>ATOM
      1 C         141.3438  140.5151  166.9475 C.ar    1  UNL1        0.0730
      2 C         142.3261  141.2878  166.1179 C.ar    1  UNL1        0.0322
      3 C         143.2741  142.2457  166.7765 C.ar    1  UNL1        0.0653
      4 C         143.2399  142.4309  168.2646 C.ar    1  UNL1        0.1133
      5 N         142.2576  141.6583  169.0942 N.ar    1  UNL1       -0.2367
      6 C         141.3096  140.7004  168.4357 C.ar    1  UNL1        0.1476
      7 C         140.3274  139.9278  169.2652 C.2     1  UNL1        0.2617
      8 N         140.7316  139.4025  170.6108 N.am    1  UNL1       -0.3240
      9 O         138.9407  139.6804  168.7492 O.2     1  UNL1       -0.2687
     10 H         141.6417  139.5648  170.9495 H       1  UNL1        0.1453
     11 H         140.0869  138.8954  171.1553 H       1  UNL1        0.1453
     12 N         140.3958  139.5573  166.2890 N.pl3   1  UNL1       -0.2966
     13 H         140.3582  138.6194  166.5860 H       1  UNL1        0.1537
     14 C         137.7775  138.5947  161.9051 C.3     1  UNL1        0.0521
     15 C         138.1959  139.5470  162.9859 C.ar    1  UNL1        0.0605
     16 C         137.7235  140.9703  162.9555 C.ar    1  UNL1        0.0107
     17 C         138.1419  141.9226  164.0362 C.ar    1  UNL1       -0.0159
     18 C         139.0326  141.4517  165.1474 C.ar    1  UNL1        0.0302
     19 C         139.5050  140.0283  165.1778 C.ar    1  UNL1        0.1315
     20 N         139.0866  139.0760  164.0970 N.ar    1  UNL1       -0.2349
     21 C         137.6694  143.3460  164.0058 C.3     1  UNL1        0.0533
     22 C         138.6642  144.4645  163.9082 C.3     1  UNL1        0.0925
     23 C         138.4453  144.7856  165.3570 C.3     1  UNL1        0.0297
     24 C         138.8831  144.1434  162.4594 C.3     1  UNL1        0.0297
     25 O         139.6590  145.5829  163.8106 O.3     1  UNL1       -0.3864
     26 H         139.7399  146.0198  164.6729 H       1  UNL1        0.2102
     27 N         144.2564  143.0183  165.9469 N.pl3   1  UNL1       -0.3316
     28 H         145.0638  143.3962  166.3648 H       1  UNL1        0.1468
     29 C         144.0085  143.2152  164.4807 C.3     1  UNL1        0.0833
     30 C         142.8847  144.0964  164.0217 C.3     1  UNL1        0.0208
     31 C         142.6368  144.2933  162.5555 C.3     1  UNL1        0.0018
     32 C         143.5127  143.6090  161.5482 C.3     1  UNL1        0.0015
     33 C         144.6365  142.7278  162.0072 C.3     1  UNL1        0.0172
     34 C         144.8844  142.5310  163.4734 C.3     1  UNL1        0.0689
     35 N         146.0082  141.6498  163.9324 N.3     1  UNL1       -0.3209
     36 H         146.0305  141.6305  164.9520 H       1  UNL1        0.1189
     37 H         146.8927  142.0155  163.5799 H       1  UNL1        0.1189
@<TRIPOS>BOND
     1    14    15    1
     2    15    16   ar
     3    16    17   ar
     4    17    21    1
     5    21    22    1
     6    22    23    1
     7    22    24    1
     8    22    25    1
     9    17    18   ar
    10    18    19   ar
    11    19    12    1
    12    12     1    1
    13     1     2   ar
    14     2     3   ar
    15     3    27    1
    16    29    27    1
    17    29    30    1
    18    30    31    1
    19    31    32    1
    20    32    33    1
    21    33    34    1
    22    34    35    1
    23     3     4   ar
    24     4     5   ar
    25     5     6   ar
    26     6     7    1
    27     7     8   am
    28     7     9    2
    29    19    20   ar
    30    20    15   ar
    31     6     1   ar
    32    34    29    1
    33    25    26    1
    34    12    13    1
    35    27    28    1
    36    35    36    1
    37    35    37    1
    38     8    10    1
    39     8    11    1
@<TRIPOS>MOLECULE
*****
 37 39 0 0 0
SMALL
GASTEIGER

@<TRIPOS>ATOM
      1 C         140.0592  139.5188  166.8702 C.ar    1  UNL1        0.0730
      2 C         141.1450  139.0881  165.9291 C.ar    1  UNL1        0.0322
      3 C         142.5609  138.9865  166.4138 C.ar    1  UNL1        0.0653
      4 C         142.8911  139.3155  167.8395 C.ar    1  UNL1        0.1133
      5 N         141.8053  139.7462  168.7806 N.ar    1  UNL1       -0.2367
      6 C         140.3895  139.8478  168.2960 C.ar    1  UNL1        0.1476
      7 C         139.3037  140.2785  169.2371 C.2     1  UNL1        0.2617
      8 N         139.4843  141.5069  170.0787 N.am    1  UNL1       -0.3240
      9 O         138.0373  139.4807  169.3365 O.2     1  UNL1       -0.2687
     10 H         140.3155  142.0305  170.0135 H       1  UNL1        0.1453
     11 H         138.7717  141.7895  170.6964 H       1  UNL1        0.1453
     12 N         138.6434  139.6205  166.3856 N.pl3   1  UNL1       -0.2966
     13 H         137.9077  139.2694  166.9377 H       1  UNL1        0.1537
     14 C         137.6520  139.1806  161.3039 C.3     1  UNL1        0.0521
     15 C         137.8526  140.0370  162.5189 C.ar    1  UNL1        0.0605
     16 C         137.7582  141.5299  162.4081 C.ar    1  UNL1        0.0107
     17 C         137.9588  142.3863  163.6231 C.ar    1  UNL1       -0.0159
     18 C         138.2539  141.7499  164.9489 C.ar    1  UNL1        0.0302
     19 C         138.3483  140.2570  165.0597 C.ar    1  UNL1        0.1315
     20 N         138.1477  139.4006  163.8447 N.ar    1  UNL1       -0.2349
     21 C         137.8644  143.8793  163.5123 C.3     1  UNL1        0.0533
     22 C         139.0743  144.7283  163.7679 C.3     1  UNL1        0.0925
     23 C         138.6508  144.9018  165.1963 C.3     1  UNL1        0.0297
     24 C         139.4977  144.5549  162.3394 C.3     1  UNL1        0.0297
     25 O         140.2841  145.5774  164.0234 O.3     1  UNL1       -0.3864
     26 H         140.2868  145.8661  164.9494 H       1  UNL1        0.2102
     27 N         143.6467  138.5558  165.4727 N.pl3   1  UNL1       -0.3316
     28 H         144.1454  137.7244  165.6439 H       1  UNL1        0.1468
     29 C         143.9726  139.3919  164.2707 C.3     1  UNL1        0.0833
     30 C         144.8292  140.6144  164.4174 C.3     1  UNL1        0.0208
     31 C         145.1551  141.4506  163.2154 C.3     1  UNL1        0.0018
     32 C         144.6244  141.0641  161.8667 C.3     1  UNL1        0.0015
     33 C         143.7678  139.8414  161.7200 C.3     1  UNL1        0.0172
     34 C         143.4419  139.0054  162.9220 C.3     1  UNL1        0.0689
     35 N         142.5852  137.7828  162.7753 N.3     1  UNL1       -0.3209
     36 H         142.4669  137.3393  163.6862 H       1  UNL1        0.1189
     37 H         143.0337  137.1283  162.1342 H       1  UNL1        0.1189
@<TRIPOS>BOND
     1    14    15    1
     2    15    16   ar
     3    16    17   ar
     4    17    21    1
     5    21    22    1
     6    22    23    1
     7    22    24    1
     8    22    25    1
     9    17    18   ar
    10    18    19   ar
    11    19    12    1
    12    12     1    1
    13     1     2   ar
    14     2     3   ar
    15     3    27    1
    16    29    27    1
    17    29    30    1
    18    30    31    1
    19    31    32    1
    20    32    33    1
    21    33    34    1
    22    34    35    1
    23     3     4   ar
    24     4     5   ar
    25     5     6   ar
    26     6     7    1
    27     7     8   am
    28     7     9    2
    29    19    20   ar
    30    20    15   ar
    31     6     1   ar
    32    34    29    1
    33    25    26    1
    34    12    13    1
    35    27    28    1
    36    35    36    1
    37    35    37    1
    38     8    10    1
    39     8    11    1
@<TRIPOS>MOLECULE
*****
 37 39 0 0 0
SMALL
GASTEIGER

@<TRIPOS>ATOM
      1 C         140.3856  139.4296  165.2728 C.ar    1  UNL1        0.0730
      2 C         140.4054  139.8982  166.6975 C.ar    1  UNL1        0.0322
      3 C         139.2643  139.5653  167.6125 C.ar    1  UNL1        0.0653
      4 C         138.1034  138.7638  167.1027 C.ar    1  UNL1        0.1133
      5 N         138.0836  138.2952  165.6779 N.ar    1  UNL1       -0.2367
      6 C         139.2247  138.6280  164.7630 C.ar    1  UNL1        0.1476
      7 C         139.2049  138.1594  163.3382 C.2     1  UNL1        0.2617
      8 N         138.1068  138.6034  162.4178 N.am    1  UNL1       -0.3240
      9 O         140.2832  137.2467  162.8338 O.2     1  UNL1       -0.2687
     10 H         137.3991  139.2024  162.7489 H       1  UNL1        0.1453
     11 H         138.0938  138.2958  161.4827 H       1  UNL1        0.1453
     12 N         141.5267  139.7624  164.3578 N.pl3   1  UNL1       -0.2966
     13 H         142.1019  139.0446  164.0070 H       1  UNL1        0.1537
     14 C         144.6547  143.3642  162.2982 C.3     1  UNL1        0.0521
     15 C         143.3554  142.9899  162.9475 C.ar    1  UNL1        0.0605
     16 C         142.3208  144.0422  163.2164 C.ar    1  UNL1        0.0107
     17 C         141.0215  143.6679  163.8658 C.ar    1  UNL1       -0.0159
     18 C         140.7568  142.2413  164.2462 C.ar    1  UNL1        0.0302
     19 C         141.7914  141.1891  163.9774 C.ar    1  UNL1        0.1315
     20 N         143.0907  141.5634  163.3280 N.ar    1  UNL1       -0.2349
     21 C         139.9869  144.7203  164.1347 C.3     1  UNL1        0.0533
     22 C         138.6698  144.6774  163.4182 C.3     1  UNL1        0.0925
     23 C         137.9930  144.2529  164.6878 C.3     1  UNL1        0.0297
     24 C         139.3465  145.1019  162.1487 C.3     1  UNL1        0.0297
     25 O         137.3526  144.6346  162.7018 O.3     1  UNL1       -0.3864
     26 H         136.6561  144.3665  163.3214 H       1  UNL1        0.2102
     27 N         139.2841  140.0339  169.0373 N.pl3   1  UNL1       -0.3316
     28 H         138.6261  139.6830  169.6801 H       1  UNL1        0.1468
     29 C         140.3064  141.0372  169.4827 C.3     1  UNL1        0.0833
     30 C         140.0467  142.5034  169.3020 C.3     1  UNL1        0.0208
     31 C         141.0690  143.5067  169.7474 C.3     1  UNL1        0.0018
     32 C         142.3511  143.0437  170.3734 C.3     1  UNL1        0.0015
     33 C         142.6108  141.5774  170.5540 C.3     1  UNL1        0.0172
     34 C         141.5885  140.5742  170.1087 C.3     1  UNL1        0.0689
     35 N         141.8483  139.1079  170.2893 N.3     1  UNL1       -0.3209
     36 H         141.0542  138.5756  169.9337 H       1  UNL1        0.1189
     37 H         141.9771  138.9050  171.2806 H       1  UNL1        0.1189
@<TRIPOS>BOND
     1    14    15    1
     2    15    16   ar
     3    16    17   ar
     4    17    21    1
     5    21    22    1
     6    22    23    1
     7    22    24    1
     8    22    25    1
     9    17    18   ar
    10    18    19   ar
    11    19    12    1
    12    12     1    1
    13     1     2   ar
    14     2     3   ar
    15     3    27    1
    16    29    27    1
    17    29    30    1
    18    30    31    1
    19    31    32    1
    20    32    33    1
    21    33    34    1
    22    34    35    1
    23     3     4   ar
    24     4     5   ar
    25     5     6   ar
    26     6     7    1
    27     7     8   am
    28     7     9    2
    29    19    20   ar
    30    20    15   ar
    31     6     1   ar
    32    34    29    1
    33    25    26    1
    34    12    13    1
    35    27    28    1
    36    35    36    1
    37    35    37    1
    38     8    10    1
    39     8    11    1
@<TRIPOS>MOLECULE
*****
 37 39 0 0 0
SMALL
GASTEIGER

@<TRIPOS>ATOM
      1 C         141.6738  139.9819  166.9472 C.ar    1  UNL1        0.0730
      2 C         140.5663  139.9743  165.9356 C.ar    1  UNL1        0.0322
      3 C         139.1401  139.8584  166.3859 C.ar    1  UNL1        0.0653
      4 C         138.8215  139.7502  167.8476 C.ar    1  UNL1        0.1133
      5 N         139.9291  139.7578  168.8592 N.ar    1  UNL1       -0.2367
      6 C         141.3552  139.8736  168.4090 C.ar    1  UNL1        0.1476
      7 C         142.4628  139.8812  169.4206 C.2     1  UNL1        0.2617
      8 N         142.7317  138.6590  170.2474 N.am    1  UNL1       -0.3240
      9 O         143.3013  141.1112  169.6053 O.2     1  UNL1       -0.2687
     10 H         142.1814  137.8517  170.1261 H       1  UNL1        0.1453
     11 H         143.4587  138.6640  170.9113 H       1  UNL1        0.1453
     12 N         143.0999  140.0978  166.4970 N.pl3   1  UNL1       -0.2966
     13 H         143.8309  140.0150  167.1513 H       1  UNL1        0.1537
     14 C         143.9146  138.2686  161.7021 C.3     1  UNL1        0.0521
     15 C         143.8197  139.4252  162.6526 C.ar    1  UNL1        0.0605
     16 C         144.0372  140.8238  162.1560 C.ar    1  UNL1        0.0107
     17 C         143.9423  141.9804  163.1064 C.ar    1  UNL1       -0.0159
     18 C         143.6299  141.7384  164.5534 C.ar    1  UNL1        0.0302
     19 C         143.4124  140.3398  165.0500 C.ar    1  UNL1        0.1315
     20 N         143.5073  139.1833  164.0995 N.ar    1  UNL1       -0.2349
     21 C         144.1598  143.3791  162.6098 C.3     1  UNL1        0.0533
     22 C         143.0578  144.3915  162.7131 C.3     1  UNL1        0.0925
     23 C         143.7826  145.0654  163.8402 C.3     1  UNL1        0.0297
     24 C         142.3330  143.7175  161.5859 C.3     1  UNL1        0.0297
     25 O         141.9558  145.4039  162.8164 O.3     1  UNL1       -0.3864
     26 H         142.1602  146.0330  163.5258 H       1  UNL1        0.2102
     27 N         138.0325  139.8508  165.3743 N.pl3   1  UNL1       -0.3316
     28 H         137.3291  139.1636  165.4198 H       1  UNL1        0.1468
     29 C         137.9968  140.8904  164.2935 C.3     1  UNL1        0.0833
     30 C         137.9590  142.3459  164.6538 C.3     1  UNL1        0.0208
     31 C         137.9233  143.3855  163.5729 C.3     1  UNL1        0.0018
     32 C         137.9254  142.9694  162.1318 C.3     1  UNL1        0.0015
     33 C         137.9633  141.5137  161.7715 C.3     1  UNL1        0.0172
     34 C         137.9990  140.4743  162.8523 C.3     1  UNL1        0.0689
     35 N         138.0368  139.0186  162.4921 N.3     1  UNL1       -0.3209
     36 H         138.0578  138.4580  163.3439 H       1  UNL1        0.1189
     37 H         138.8717  138.8270  161.9382 H       1  UNL1        0.1189
@<TRIPOS>BOND
     1    14    15    1
     2    15    16   ar
     3    16    17   ar
     4    17    21    1
     5    21    22    1
     6    22    23    1
     7    22    24    1
     8    22    25    1
     9    17    18   ar
    10    18    19   ar
    11    19    12    1
    12    12     1    1
    13     1     2   ar
    14     2     3   ar
    15     3    27    1
    16    29    27    1
    17    29    30    1
    18    30    31    1
    19    31    32    1
    20    32    33    1
    21    33    34    1
    22    34    35    1
    23     3     4   ar
    24     4     5   ar
    25     5     6   ar
    26     6     7    1
    27     7     8   am
    28     7     9    2
    29    19    20   ar
    30    20    15   ar
    31     6     1   ar
    32    34    29    1
    33    25    26    1
    34    12    13    1
    35    27    28    1
    36    35    36    1
    37    35    37    1
    38     8    10    1
    39     8    11    1
@<TRIPOS>MOLECULE
*****
 37 39 0 0 0
SMALL
GASTEIGER

@<TRIPOS>ATOM
      1 C         139.2754  141.2007  165.0696 C.ar    1  UNL1        0.0730
      2 C         139.8436  141.0818  166.4527 C.ar    1  UNL1        0.0322
      3 C         139.3727  139.9885  167.3656 C.ar    1  UNL1        0.0653
      4 C         138.3338  139.0142  166.8952 C.ar    1  UNL1        0.1133
      5 N         137.7656  139.1331  165.5121 N.ar    1  UNL1       -0.2367
      6 C         138.2364  140.2263  164.5993 C.ar    1  UNL1        0.1476
      7 C         137.6683  140.3452  163.2161 C.2     1  UNL1        0.2617
      8 N         137.7028  139.1678  162.2874 N.am    1  UNL1       -0.3240
      9 O         137.0656  141.6415  162.7618 O.2     1  UNL1       -0.2687
     10 H         138.0983  138.3170  162.5856 H       1  UNL1        0.1453
     11 H         137.3299  139.2459  161.3796 H       1  UNL1        0.1453
     12 N         139.7463  142.2938  164.1568 N.pl3   1  UNL1       -0.2966
     13 H         139.0915  142.8709  163.7012 H       1  UNL1        0.1537
     14 C         143.8458  145.4790  163.9363 C.3     1  UNL1        0.0521
     15 C         143.2645  144.1005  163.8278 C.ar    1  UNL1        0.0605
     16 C         144.1516  142.9360  163.5007 C.ar    1  UNL1        0.0107
     17 C         143.5703  141.5575  163.3922 C.ar    1  UNL1       -0.0159
     18 C         142.1019  141.3434  163.6109 C.ar    1  UNL1        0.0302
     19 C         141.2148  142.5079  163.9381 C.ar    1  UNL1        0.1315
     20 N         141.7961  143.8864  164.0465 N.ar    1  UNL1       -0.2349
     21 C         144.4575  140.3930  163.0650 C.3     1  UNL1        0.0533
     22 C         143.8542  139.0846  162.6477 C.3     1  UNL1        0.0925
     23 C         144.0385  139.4591  161.2069 C.3     1  UNL1        0.0297
     24 C         143.6700  138.7101  164.0885 C.3     1  UNL1        0.0297
     25 O         143.2510  137.7761  162.2305 O.3     1  UNL1       -0.3864
     26 H         143.2333  137.7224  161.2621 H       1  UNL1        0.2102
     27 N         139.9409  139.8696  168.7487 N.pl3   1  UNL1       -0.3316
     28 H         139.6656  139.1256  169.3317 H       1  UNL1        0.1468
     29 C         140.9285  140.8844  169.2436 C.3     1  UNL1        0.0833
     30 C         140.4584  142.2452  169.6646 C.3     1  UNL1        0.0208
     31 C         141.4461  143.2600  170.1595 C.3     1  UNL1        0.0018
     32 C         142.9037  142.9140  170.2334 C.3     1  UNL1        0.0015
     33 C         143.3738  141.5531  169.8123 C.3     1  UNL1        0.0172
     34 C         142.3862  140.5384  169.3175 C.3     1  UNL1        0.0689
     35 N         142.8562  139.1775  168.8964 N.3     1  UNL1       -0.3209
     36 H         142.0576  138.6216  168.5905 H       1  UNL1        0.1189
     37 H         143.3101  138.7157  169.6845 H       1  UNL1        0.1189
@<TRIPOS>BOND
     1    14    15    1
     2    15    16   ar
     3    16    17   ar
     4    17    21    1
     5    21    22    1
     6    22    23    1
     7    22    24    1
     8    22    25    1
     9    17    18   ar
    10    18    19   ar
    11    19    12    1
    12    12     1    1
    13     1     2   ar
    14     2     3   ar
    15     3    27    1
    16    29    27    1
    17    29    30    1
    18    30    31    1
    19    31    32    1
    20    32    33    1
    21    33    34    1
    22    34    35    1
    23     3     4   ar
    24     4     5   ar
    25     5     6   ar
    26     6     7    1
    27     7     8   am
    28     7     9    2
    29    19    20   ar
    30    20    15   ar
    31     6     1   ar
    32    34    29    1
    33    25    26    1
    34    12    13    1
    35    27    28    1
    36    35    36    1
    37    35    37    1
    38     8    10    1
    39     8    11    1
@<TRIPOS>MOLECULE
*****
 37 39 0 0 0
SMALL
GASTEIGER

@<TRIPOS>ATOM
      1 C         142.7999  141.4275  160.9915 C.ar    1  UNL1        0.0730
      2 C         141.9395  142.5466  161.4988 C.ar    1  UNL1        0.0322
      3 C         141.1291  143.3646  160.5374 C.ar    1  UNL1        0.0653
      4 C         141.1791  143.0635  159.0688 C.ar    1  UNL1        0.1133
      5 N         142.0395  141.9444  158.5616 N.ar    1  UNL1       -0.2367
      6 C         142.8499  141.1264  159.5228 C.ar    1  UNL1        0.1476
      7 C         143.7103  140.0073  159.0156 C.2     1  UNL1        0.2617
      8 N         144.4867  140.1757  157.7433 N.am    1  UNL1       -0.3240
      9 O         143.7942  138.7198  159.7806 O.2     1  UNL1       -0.2687
     10 H         144.4316  141.0208  157.2412 H       1  UNL1        0.1453
     11 H         145.0514  139.4412  157.4103 H       1  UNL1        0.1453
     12 N         143.6103  140.6095  161.9528 N.pl3   1  UNL1       -0.2966
     13 H         144.5935  140.6256  161.9057 H       1  UNL1        0.1537
     14 C         143.7099  138.0827  166.4921 C.3     1  UNL1        0.0521
     15 C         142.9724  138.5037  165.2556 C.ar    1  UNL1        0.0605
     16 C         141.5473  138.0822  165.0523 C.ar    1  UNL1        0.0107
     17 C         140.8099  138.5031  163.8158 C.ar    1  UNL1       -0.0159
     18 C         141.4975  139.3456  162.7826 C.ar    1  UNL1        0.0302
     19 C         142.9226  139.7670  162.9860 C.ar    1  UNL1        0.1315
     20 N         143.6601  139.3461  164.2225 N.ar    1  UNL1       -0.2349
     21 C         139.3847  138.0816  163.6124 C.3     1  UNL1        0.0533
     22 C         138.3987  139.0374  163.0088 C.3     1  UNL1        0.0925
     23 C         138.3638  138.2110  161.7575 C.3     1  UNL1        0.0297
     24 C         138.4337  139.8637  164.2602 C.3     1  UNL1        0.0297
     25 O         137.4128  139.9932  162.4052 O.3     1  UNL1       -0.3864
     26 H         137.1789  139.6954  161.5122 H       1  UNL1        0.2102
     27 N         140.2687  144.4837  161.0447 N.pl3   1  UNL1       -0.3316
     28 H         140.1996  145.3222  160.5334 H       1  UNL1        0.1468
     29 C         139.5136  144.3253  162.3311 C.3     1  UNL1        0.0833
     30 C         140.0343  144.9552  163.5889 C.3     1  UNL1        0.0208
     31 C         139.2791  144.7968  164.8753 C.3     1  UNL1        0.0018
     32 C         138.0033  144.0084  164.9038 C.3     1  UNL1        0.0015
     33 C         137.4826  143.3785  163.6459 C.3     1  UNL1        0.0172
     34 C         138.2378  143.5370  162.3596 C.3     1  UNL1        0.0689
     35 N         137.7171  142.9071  161.1017 N.3     1  UNL1       -0.3209
     36 H         138.3508  143.1148  160.3300 H       1  UNL1        0.1189
     37 H         136.7917  143.2813  160.8919 H       1  UNL1        0.1189
@<TRIPOS>BOND
     1    14    15    1
     2    15    16   ar
     3    16    17   ar
     4    17    21    1
     5    21    22    1
     6    22    23    1
     7    22    24    1
     8    22    25    1
     9    17    18   ar
    10    18    19   ar
    11    19    12    1
    12    12     1    1
    13     1     2   ar
    14     2     3   ar
    15     3    27    1
    16    29    27    1
    17    29    30    1
    18    30    31    1
    19    31    32    1
    20    32    33    1
    21    33    34    1
    22    34    35    1
    23     3     4   ar
    24     4     5   ar
    25     5     6   ar
    26     6     7    1
    27     7     8   am
    28     7     9    2
    29    19    20   ar
    30    20    15   ar
    31     6     1   ar
    32    34    29    1
    33    25    26    1
    34    12    13    1
    35    27    28    1
    36    35    36    1
    37    35    37    1
    38     8    10    1
    39     8    11    1
@<TRIPOS>MOLECULE
*****
 37 39 0 0 0
SMALL
GASTEIGER

@<TRIPOS>ATOM
      1 C         139.7141  143.5362  162.5006 C.ar    1  UNL1        0.0730
      2 C         139.0601  142.2185  162.7936 C.ar    1  UNL1        0.0322
      3 C         138.2824  141.5126  161.7226 C.ar    1  UNL1        0.0653
      4 C         138.1587  142.1245  160.3587 C.ar    1  UNL1        0.1133
      5 N         138.8127  143.4422  160.0657 N.ar    1  UNL1       -0.2367
      6 C         139.5904  144.1481  161.1367 C.ar    1  UNL1        0.1476
      7 C         140.2444  145.4659  160.8437 C.2     1  UNL1        0.2617
      8 N         141.6156  145.5042  160.2370 N.am    1  UNL1       -0.3240
      9 O         139.5270  146.7454  161.1574 O.2     1  UNL1       -0.2687
     10 H         142.0864  144.6644  160.0310 H       1  UNL1        0.1453
     11 H         142.0448  146.3691  160.0447 H       1  UNL1        0.1453
     12 N         140.4917  144.2421  163.5716 N.pl3   1  UNL1       -0.2966
     13 H         140.3030  145.1866  163.7756 H       1  UNL1        0.1537
     14 C         145.2544  142.1751  163.7838 C.3     1  UNL1        0.0521
     15 C         143.9383  142.4756  164.4378 C.ar    1  UNL1        0.0605
     16 C         143.6875  142.0429  165.8520 C.ar    1  UNL1        0.0107
     17 C         142.3715  142.3433  166.5060 C.ar    1  UNL1       -0.0159
     18 C         141.3062  143.0764  165.7459 C.ar    1  UNL1        0.0302
     19 C         141.5570  143.5090  164.3318 C.ar    1  UNL1        0.1315
     20 N         142.8731  143.2086  163.6777 N.ar    1  UNL1       -0.2349
     21 C         142.1207  141.9106  167.9202 C.3     1  UNL1        0.0533
     22 C         140.9016  141.1021  168.2522 C.3     1  UNL1        0.0925
     23 C         141.4689  139.9367  167.4973 C.3     1  UNL1        0.0297
     24 C         140.3343  142.2676  169.0071 C.3     1  UNL1        0.0297
     25 O         139.6825  140.2937  168.5842 O.3     1  UNL1       -0.3864
     26 H         139.7656  139.4089  168.1954 H       1  UNL1        0.2102
     27 N         137.6284  140.1949  162.0156 N.pl3   1  UNL1       -0.3316
     28 H         136.8504  139.9032  161.4875 H       1  UNL1        0.1468
     29 C         138.1599  139.3214  163.1133 C.3     1  UNL1        0.0833
     30 C         137.9214  139.6906  164.5474 C.3     1  UNL1        0.0208
     31 C         138.4528  138.8172  165.6451 C.3     1  UNL1        0.0018
     32 C         139.2227  137.5746  165.3085 C.3     1  UNL1        0.0015
     33 C         139.4611  137.2055  163.8743 C.3     1  UNL1        0.0172
     34 C         138.9297  138.0789  162.7767 C.3     1  UNL1        0.0689
     35 N         139.1682  137.7097  161.3425 N.3     1  UNL1       -0.3209
     36 H         138.7406  138.4092  160.7357 H       1  UNL1        0.1189
     37 H         138.7545  136.7968  161.1531 H       1  UNL1        0.1189
@<TRIPOS>BOND
     1    14    15    1
     2    15    16   ar
     3    16    17   ar
     4    17    21    1
     5    21    22    1
     6    22    23    1
     7    22    24    1
     8    22    25    1
     9    17    18   ar
    10    18    19   ar
    11    19    12    1
    12    12     1    1
    13     1     2   ar
    14     2     3   ar
    15     3    27    1
    16    29    27    1
    17    29    30    1
    18    30    31    1
    19    31    32    1
    20    32    33    1
    21    33    34    1
    22    34    35    1
    23     3     4   ar
    24     4     5   ar
    25     5     6   ar
    26     6     7    1
    27     7     8   am
    28     7     9    2
    29    19    20   ar
    30    20    15   ar
    31     6     1   ar
    32    34    29    1
    33    25    26    1
    34    12    13    1
    35    27    28    1
    36    35    36    1
    37    35    37    1
    38     8    10    1
    39     8    11    1
@<TRIPOS>MOLECULE
*****
 37 39 0 0 0
SMALL
GASTEIGER

@<TRIPOS>ATOM
      1 C         140.7861  140.3022  160.5369 C.ar    1  UNL1        0.0730
      2 C         141.9930  141.0514  161.0188 C.ar    1  UNL1        0.0322
      3 C         142.6619  142.0515  160.1230 C.ar    1  UNL1        0.0653
      4 C         142.1240  142.3024  158.7455 C.ar    1  UNL1        0.1133
      5 N         140.9172  141.5532  158.2636 N.ar    1  UNL1       -0.2367
      6 C         140.2482  140.5531  159.1593 C.ar    1  UNL1        0.1476
      7 C         139.0414  139.8039  158.6774 C.2     1  UNL1        0.2617
      8 N         139.1215  138.9760  157.4292 N.am    1  UNL1       -0.3240
      9 O         137.7543  139.8827  159.4438 O.2     1  UNL1       -0.2687
     10 H         139.9663  138.9243  156.9262 H       1  UNL1        0.1453
     11 H         138.3294  138.4843  157.1130 H       1  UNL1        0.1453
     12 N         140.1172  139.3021  161.4326 N.pl3   1  UNL1       -0.2966
     13 H         140.1081  138.3490  161.1860 H       1  UNL1        0.1537
     14 C         138.2495  138.2280  166.1610 C.3     1  UNL1        0.0521
     15 C         138.5282  139.2170  165.0682 C.ar    1  UNL1        0.0605
     16 C         138.1517  140.6580  165.2468 C.ar    1  UNL1        0.0107
     17 C         138.4304  141.6470  164.1540 C.ar    1  UNL1       -0.0159
     18 C         139.0855  141.1950  162.8826 C.ar    1  UNL1        0.0302
     19 C         139.4620  139.7541  162.7040 C.ar    1  UNL1        0.1315
     20 N         139.1833  138.7651  163.7968 N.ar    1  UNL1       -0.2349
     21 C         138.0538  143.0880  164.3326 C.3     1  UNL1        0.0533
     22 C         139.0781  144.1628  164.1190 C.3     1  UNL1        0.0925
     23 C         138.3286  144.6365  162.9091 C.3     1  UNL1        0.0297
     24 C         139.8276  143.6890  165.3288 C.3     1  UNL1        0.0297
     25 O         140.1023  145.2376  163.9053 O.3     1  UNL1       -0.3864
     26 H         139.8661  145.7581  163.1216 H       1  UNL1        0.2102
     27 N         143.8688  142.8007  160.6049 N.pl3   1  UNL1       -0.3316
     28 H         144.5208  143.1529  159.9567 H       1  UNL1        0.1468
     29 C         144.0822  143.0134  162.0744 C.3     1  UNL1        0.0833
     30 C         144.9825  142.0919  162.8426 C.3     1  UNL1        0.0208
     31 C         145.1959  142.3045  164.3121 C.3     1  UNL1        0.0018
     32 C         144.5090  143.4387  165.0133 C.3     1  UNL1        0.0015
     33 C         143.6087  144.3603  164.2450 C.3     1  UNL1        0.0172
     34 C         143.3953  144.1476  162.7756 C.3     1  UNL1        0.0689
     35 N         142.4949  145.0692  162.0073 N.3     1  UNL1       -0.3209
     36 H         142.4662  144.7795  161.0297 H       1  UNL1        0.1189
     37 H         142.8518  146.0227  162.0690 H       1  UNL1        0.1189
@<TRIPOS>BOND
     1    14    15    1
     2    15    16   ar
     3    16    17   ar
     4    17    21    1
     5    21    22    1
     6    22    23    1
     7    22    24    1
     8    22    25    1
     9    17    18   ar
    10    18    19   ar
    11    19    12    1
    12    12     1    1
    13     1     2   ar
    14     2     3   ar
    15     3    27    1
    16    29    27    1
    17    29    30    1
    18    30    31    1
    19    31    32    1
    20    32    33    1
    21    33    34    1
    22    34    35    1
    23     3     4   ar
    24     4     5   ar
    25     5     6   ar
    26     6     7    1
    27     7     8   am
    28     7     9    2
    29    19    20   ar
    30    20    15   ar
    31     6     1   ar
    32    34    29    1
    33    25    26    1
    34    12    13    1
    35    27    28    1
    36    35    36    1
    37    35    37    1
    38     8    10    1
    39     8    11    1
