@<TRIPOS>MOLECULE
*****
 41 46 0 0 0
SMALL
GASTEIGER

@<TRIPOS>ATOM
      1 C         140.1305  138.3347  163.1596 C.ar    1  UNL1        0.0009
      2 C         139.7191  137.0764  163.8648 C.ar    1  UNL1        0.0002
      3 C         138.9926  137.1540  165.1748 C.ar    1  UNL1        0.0060
      4 C         138.6774  138.4899  165.7796 C.ar    1  UNL1        0.0707
      5 C         139.0888  139.7483  165.0744 C.ar    1  UNL1        0.0853
      6 N         138.9172  141.1969  165.4241 N.2     1  UNL1       -0.2455
      7 C         139.5376  142.0145  164.3302 C.2     1  UNL1        0.0774
      8 C         139.6688  143.4960  164.1356 C.2     1  UNL1        0.0164
      9 C         140.3552  144.0342  162.9153 C.2     1  UNL1       -0.0007
     10 C         140.9103  143.0910  161.8896 C.2     1  UNL1       -0.0233
     11 C         140.7791  141.6095  162.0841 C.3     1  UNL1        0.0536
     12 C         140.0927  141.0713  163.3044 C.2     1  UNL1        0.0013
     13 C         139.8154  139.6707  163.7644 C.ar    1  UNL1        0.0156
     14 C         138.6587  138.8439  160.5956 C.3     1  UNL1        0.0326
     15 C         140.1212  138.5116  160.5676 C.ar    1  UNL1       -0.0056
     16 C         140.8571  138.2571  161.8495 C.ar    1  UNL1       -0.0025
     17 C         142.3196  137.9248  161.8216 C.ar    1  UNL1       -0.0002
     18 C         143.0461  137.8471  160.5116 C.ar    1  UNL1        0.0015
     19 C         142.3101  138.1017  159.2296 C.ar    1  UNL1        0.0173
     20 C         140.8476  138.4340  159.2576 C.ar    1  UNL1        0.0643
     21 N         140.1117  138.6886  157.9755 N.ar    1  UNL1       -0.2570
     22 C         139.6880  137.5372  157.1126 C.ar    1  UNL1        0.1850
     23 N         138.9520  137.7918  155.8305 N.ar    1  UNL1       -0.2249
     24 C         138.6397  139.1978  155.4115 C.ar    1  UNL1        0.0876
     25 C         137.9038  139.4523  154.1296 C.ar    1  UNL1        0.0193
     26 C         137.5915  140.8584  153.7105 C.ar    1  UNL1        0.0015
     27 C         138.0152  142.0098  154.5735 C.ar    1  UNL1        0.0003
     28 C         138.7511  141.7552  155.8555 C.ar    1  UNL1        0.0063
     29 C         139.0634  140.3492  156.2745 C.ar    1  UNL1        0.0742
     30 C         139.7994  140.0946  157.5565 C.ar    1  UNL1        0.2672
     31 O         140.2230  141.2461  158.4195 O.2     1  UNL1       -0.2665
     32 C         137.9509  138.5676  167.0896 C.2     1  UNL1        0.2442
     33 N         138.4755  139.4448  168.1873 N.am    1  UNL1       -0.3253
     34 O         136.6997  137.7678  167.3019 O.2     1  UNL1       -0.2703
     35 H         139.2967  139.9697  168.0480 H       1  UNL1        0.1453
     36 H         137.9986  139.4958  169.0471 H       1  UNL1        0.1453
     37 C         140.4864  145.5158  162.7207 C.3     1  UNL1        0.1069
     38 C         139.1972  145.5294  161.9540 C.3     1  UNL1        0.0339
     39 C         141.7755  145.5023  163.4874 C.3     1  UNL1        0.0339
     40 O         140.6176  146.9973  162.5262 O.3     1  UNL1       -0.3827
     41 H         139.8600  147.3249  162.0168 H       1  UNL1        0.2107
@<TRIPOS>BOND
     1    14    15    1
     2    15    16   ar
     3    16     1    1
     4     1     2   ar
     5     2     3   ar
     6     3     4   ar
     7     4    32    1
     8    32    33   am
     9    32    34    2
    10     4     5   ar
    11     5     6    2
    12     6     7    1
    13     7     8    2
    14     8     9    1
    15     9    37    1
    16    37    38    1
    17    37    39    1
    18    37    40    1
    19     9    10    2
    20    10    11    1
    21    11    12    1
    22    12    13    2
    23    16    17   ar
    24    17    18   ar
    25    18    19   ar
    26    19    20   ar
    27    20    21    1
    28    21    22   ar
    29    22    23   ar
    30    23    24   ar
    31    24    25   ar
    32    25    26   ar
    33    26    27   ar
    34    27    28   ar
    35    28    29   ar
    36    29    30   ar
    37    30    31    2
    38    20    15   ar
    39    30    21   ar
    40    13     1   ar
    41    29    24   ar
    42    13     5   ar
    43    12     7    1
    44    33    35    1
    45    33    36    1
    46    40    41    1
@<TRIPOS>MOLECULE
*****
 41 46 0 0 0
SMALL
GASTEIGER

@<TRIPOS>ATOM
      1 C         141.6086  138.6969  161.3289 C.ar    1  UNL1        0.0009
      2 C         142.2963  137.4969  160.7483 C.ar    1  UNL1        0.0002
      3 C         143.0170  137.6066  159.4374 C.ar    1  UNL1        0.0060
      4 C         143.0501  138.9164  158.7071 C.ar    1  UNL1        0.0707
      5 C         142.3624  140.1164  159.2877 C.ar    1  UNL1        0.0853
      6 N         142.2256  141.5285  158.8004 N.2     1  UNL1       -0.2455
      7 C         141.4204  142.2914  159.8102 C.2     1  UNL1        0.0774
      8 C         140.9692  143.7210  159.8612 C.2     1  UNL1        0.0164
      9 C         140.1571  144.2100  161.0236 C.2     1  UNL1       -0.0007
     10 C         139.7962  143.2695  162.1350 C.2     1  UNL1       -0.0233
     11 C         140.2474  141.8399  162.0839 C.3     1  UNL1        0.0536
     12 C         141.0595  141.3509  160.9215 C.2     1  UNL1        0.0013
     13 C         141.6417  140.0067  160.5986 C.ar    1  UNL1        0.0156
     14 C         142.7753  139.9513  163.7917 C.3     1  UNL1        0.0326
     15 C         141.4713  139.2143  163.8712 C.ar    1  UNL1       -0.0056
     16 C         140.8879  138.5871  162.6399 C.ar    1  UNL1       -0.0025
     17 C         139.5839  137.8501  162.7194 C.ar    1  UNL1       -0.0002
     18 C         138.8632  137.7403  164.0303 C.ar    1  UNL1        0.0015
     19 C         139.4466  138.3675  165.2617 C.ar    1  UNL1        0.0173
     20 C         140.7506  139.1045  165.1822 C.ar    1  UNL1        0.0643
     21 N         141.3340  139.7317  166.4136 N.ar    1  UNL1       -0.2570
     22 C         142.4983  139.0860  167.1045 C.ar    1  UNL1        0.1850
     23 N         143.0817  139.7132  168.3359 N.ar    1  UNL1       -0.2249
     24 C         142.5007  140.9861  168.8764 C.ar    1  UNL1        0.0876
     25 C         143.0840  141.6133  170.1077 C.ar    1  UNL1        0.0193
     26 C         142.5030  142.8863  170.6482 C.ar    1  UNL1        0.0015
     27 C         141.3387  143.5320  169.9573 C.ar    1  UNL1        0.0003
     28 C         140.7553  142.9048  168.7259 C.ar    1  UNL1        0.0063
     29 C         141.3364  141.6318  168.1855 C.ar    1  UNL1        0.0742
     30 C         140.7530  141.0046  166.9541 C.ar    1  UNL1        0.2672
     31 O         139.5886  141.6504  166.2632 O.2     1  UNL1       -0.2665
     32 C         143.7708  139.0262  157.3962 C.2     1  UNL1        0.2442
     33 N         144.6011  140.2387  157.0960 N.am    1  UNL1       -0.3253
     34 O         143.6611  137.9233  156.3853 O.2     1  UNL1       -0.2703
     35 H         144.6731  140.9625  157.7594 H       1  UNL1        0.1453
     36 H         145.0741  140.3107  156.2356 H       1  UNL1        0.1453
     37 C         139.7059  145.6397  161.0747 C.3     1  UNL1        0.1069
     38 C         140.2251  145.8533  159.6838 C.3     1  UNL1        0.0339
     39 C         139.1867  145.4261  162.4656 C.3     1  UNL1        0.0339
     40 O         139.2547  147.0693  161.1259 O.3     1  UNL1       -0.3827
     41 H         139.4740  147.5077  160.2888 H       1  UNL1        0.2107
@<TRIPOS>BOND
     1    14    15    1
     2    15    16   ar
     3    16     1    1
     4     1     2   ar
     5     2     3   ar
     6     3     4   ar
     7     4    32    1
     8    32    33   am
     9    32    34    2
    10     4     5   ar
    11     5     6    2
    12     6     7    1
    13     7     8    2
    14     8     9    1
    15     9    37    1
    16    37    38    1
    17    37    39    1
    18    37    40    1
    19     9    10    2
    20    10    11    1
    21    11    12    1
    22    12    13    2
    23    16    17   ar
    24    17    18   ar
    25    18    19   ar
    26    19    20   ar
    27    20    21    1
    28    21    22   ar
    29    22    23   ar
    30    23    24   ar
    31    24    25   ar
    32    25    26   ar
    33    26    27   ar
    34    27    28   ar
    35    28    29   ar
    36    29    30   ar
    37    30    31    2
    38    20    15   ar
    39    30    21   ar
    40    13     1   ar
    41    29    24   ar
    42    13     5   ar
    43    12     7    1
    44    33    35    1
    45    33    36    1
    46    40    41    1
@<TRIPOS>MOLECULE
*****
 41 46 0 0 0
SMALL
GASTEIGER

@<TRIPOS>ATOM
      1 C         141.0844  139.4980  164.3606 C.ar    1  UNL1        0.0009
      2 C         140.1849  138.5167  163.6691 C.ar    1  UNL1        0.0002
      3 C         139.0611  137.8693  164.4227 C.ar    1  UNL1        0.0060
      4 C         138.8368  138.2032  165.8678 C.ar    1  UNL1        0.0707
      5 C         139.7362  139.1845  166.5592 C.ar    1  UNL1        0.0853
      6 N         139.7597  139.7067  167.9652 N.2     1  UNL1       -0.2455
      7 C         140.8980  140.6767  168.0805 C.2     1  UNL1        0.0774
      8 C         141.4030  141.4995  169.2285 C.2     1  UNL1        0.0164
      9 C         142.5882  142.3997  169.0417 C.2     1  UNL1       -0.0007
     10 C         143.2683  142.4771  167.7070 C.2     1  UNL1       -0.0233
     11 C         142.7632  141.6543  166.5590 C.3     1  UNL1        0.0536
     12 C         141.5780  140.7541  166.7458 C.2     1  UNL1        0.0013
     13 C         140.8601  139.8319  165.8056 C.ar    1  UNL1        0.0156
     14 C         140.4884  141.4771  162.1863 C.3     1  UNL1        0.0326
     15 C         141.9102  141.1349  162.5198 C.ar    1  UNL1       -0.0056
     16 C         142.2083  140.1453  163.6069 C.ar    1  UNL1       -0.0025
     17 C         143.6301  139.8030  163.9404 C.ar    1  UNL1       -0.0002
     18 C         144.7539  140.4504  163.1868 C.ar    1  UNL1        0.0015
     19 C         144.4558  141.4400  162.0996 C.ar    1  UNL1        0.0173
     20 C         143.0340  141.7822  161.7661 C.ar    1  UNL1        0.0643
     21 N         142.7359  142.7718  160.6790 N.ar    1  UNL1       -0.2570
     22 C         142.1929  144.1263  161.0260 C.ar    1  UNL1        0.1850
     23 N         141.8948  145.1159  159.9388 N.ar    1  UNL1       -0.2249
     24 C         142.1398  144.7510  158.5046 C.ar    1  UNL1        0.0876
     25 C         141.8417  145.7405  157.4176 C.ar    1  UNL1        0.0193
     26 C         142.0868  145.3756  155.9833 C.ar    1  UNL1        0.0015
     27 C         142.6298  144.0211  155.6363 C.ar    1  UNL1        0.0003
     28 C         142.9279  143.0315  156.7235 C.ar    1  UNL1        0.0063
     29 C         142.6828  143.3965  158.1576 C.ar    1  UNL1        0.0742
     30 C         142.9809  142.4069  159.2448 C.ar    1  UNL1        0.2672
     31 O         143.5240  141.0524  158.8977 O.2     1  UNL1       -0.2665
     32 C         137.7129  137.5559  166.6214 C.2     1  UNL1        0.2442
     33 N         137.0448  138.2883  167.7469 N.am    1  UNL1       -0.3253
     34 O         137.2573  136.1760  166.2494 O.2     1  UNL1       -0.2703
     35 H         137.3438  139.1939  167.9911 H       1  UNL1        0.1453
     36 H         136.3072  137.8634  168.2415 H       1  UNL1        0.1453
     37 C         143.0934  143.2226  170.1897 C.3     1  UNL1        0.1069
     38 C         144.4810  142.7063  169.9493 C.3     1  UNL1        0.0339
     39 C         141.7058  143.7390  170.4301 C.3     1  UNL1        0.0339
     40 O         143.5984  144.0455  171.3376 O.3     1  UNL1       -0.3827
     41 H         144.5533  143.9080  171.4385 H       1  UNL1        0.2107
@<TRIPOS>BOND
     1    14    15    1
     2    15    16   ar
     3    16     1    1
     4     1     2   ar
     5     2     3   ar
     6     3     4   ar
     7     4    32    1
     8    32    33   am
     9    32    34    2
    10     4     5   ar
    11     5     6    2
    12     6     7    1
    13     7     8    2
    14     8     9    1
    15     9    37    1
    16    37    38    1
    17    37    39    1
    18    37    40    1
    19     9    10    2
    20    10    11    1
    21    11    12    1
    22    12    13    2
    23    16    17   ar
    24    17    18   ar
    25    18    19   ar
    26    19    20   ar
    27    20    21    1
    28    21    22   ar
    29    22    23   ar
    30    23    24   ar
    31    24    25   ar
    32    25    26   ar
    33    26    27   ar
    34    27    28   ar
    35    28    29   ar
    36    29    30   ar
    37    30    31    2
    38    20    15   ar
    39    30    21   ar
    40    13     1   ar
    41    29    24   ar
    42    13     5   ar
    43    12     7    1
    44    33    35    1
    45    33    36    1
    46    40    41    1
@<TRIPOS>MOLECULE
*****
 41 46 0 0 0
SMALL
GASTEIGER

@<TRIPOS>ATOM
      1 C         142.4888  140.9850  156.6358 C.ar    1  UNL1        0.0009
      2 C         143.1098  142.3481  156.5569 C.ar    1  UNL1        0.0002
      3 C         144.5184  142.5031  156.0651 C.ar    1  UNL1        0.0060
      4 C         145.3059  141.2951  155.6522 C.ar    1  UNL1        0.0707
      5 C         144.6848  139.9320  155.7312 C.ar    1  UNL1        0.0853
      6 N         145.2114  138.5681  155.3958 N.2     1  UNL1       -0.2455
      7 C         144.1283  137.5701  155.6804 C.2     1  UNL1        0.0774
      8 C         144.0767  136.0776  155.5401 C.2     1  UNL1        0.0164
      9 C         142.8290  135.3322  155.9110 C.2     1  UNL1       -0.0007
     10 C         141.6329  136.0793  156.4222 C.2     1  UNL1       -0.0233
     11 C         141.6846  137.5718  156.5625 C.3     1  UNL1        0.0536
     12 C         142.9323  138.3172  156.1916 C.2     1  UNL1        0.0013
     13 C         143.2762  139.7769  156.2230 C.ar    1  UNL1        0.0156
     14 C         141.9382  140.8141  159.5799 C.3     1  UNL1        0.0326
     15 C         140.8049  140.7445  158.5997 C.ar    1  UNL1       -0.0056
     16 C         141.0801  140.8300  157.1277 C.ar    1  UNL1       -0.0025
     17 C         139.9469  140.7604  156.1474 C.ar    1  UNL1       -0.0002
     18 C         138.5383  140.6054  156.6393 C.ar    1  UNL1        0.0015
     19 C         138.2631  140.5199  158.1114 C.ar    1  UNL1        0.0173
     20 C         139.3963  140.5895  159.0915 C.ar    1  UNL1        0.0643
     21 N         139.1211  140.5041  160.5636 N.ar    1  UNL1       -0.2570
     22 C         138.7395  141.7370  161.3280 C.ar    1  UNL1        0.1850
     23 N         138.4643  141.6516  162.8001 N.ar    1  UNL1       -0.2249
     24 C         138.5705  140.3333  163.5077 C.ar    1  UNL1        0.0876
     25 C         138.2953  140.2479  164.9797 C.ar    1  UNL1        0.0193
     26 C         138.4016  138.9295  165.6873 C.ar    1  UNL1        0.0015
     27 C         138.7831  137.6966  164.9229 C.ar    1  UNL1        0.0003
     28 C         139.0584  137.7820  163.4508 C.ar    1  UNL1        0.0063
     29 C         138.9521  139.1004  162.7433 C.ar    1  UNL1        0.0742
     30 C         139.2273  139.1858  161.2712 C.ar    1  UNL1        0.2672
     31 O         139.6089  137.9528  160.5068 O.2     1  UNL1       -0.2665
     32 C         146.7144  141.4502  155.1604 C.2     1  UNL1        0.2442
     33 N         147.8194  141.7457  156.1307 N.am    1  UNL1       -0.3253
     34 O         147.0181  141.3097  153.6981 O.2     1  UNL1       -0.2703
     35 H         147.6201  141.8379  157.0904 H       1  UNL1        0.1453
     36 H         148.7439  141.8475  155.8079 H       1  UNL1        0.1453
     37 C         142.7772  133.8396  155.7707 C.3     1  UNL1        0.1069
     38 C         142.2323  133.9891  154.3812 C.3     1  UNL1        0.0339
     39 C         143.3222  133.6902  157.1601 C.3     1  UNL1        0.0339
     40 O         142.7255  132.3471  155.6304 O.3     1  UNL1       -0.3827
     41 H         142.3822  132.1165  154.7530 H       1  UNL1        0.2107
@<TRIPOS>BOND
     1    14    15    1
     2    15    16   ar
     3    16     1    1
     4     1     2   ar
     5     2     3   ar
     6     3     4   ar
     7     4    32    1
     8    32    33   am
     9    32    34    2
    10     4     5   ar
    11     5     6    2
    12     6     7    1
    13     7     8    2
    14     8     9    1
    15     9    37    1
    16    37    38    1
    17    37    39    1
    18    37    40    1
    19     9    10    2
    20    10    11    1
    21    11    12    1
    22    12    13    2
    23    16    17   ar
    24    17    18   ar
    25    18    19   ar
    26    19    20   ar
    27    20    21    1
    28    21    22   ar
    29    22    23   ar
    30    23    24   ar
    31    24    25   ar
    32    25    26   ar
    33    26    27   ar
    34    27    28   ar
    35    28    29   ar
    36    29    30   ar
    37    30    31    2
    38    20    15   ar
    39    30    21   ar
    40    13     1   ar
    41    29    24   ar
    42    13     5   ar
    43    12     7    1
    44    33    35    1
    45    33    36    1
    46    40    41    1
@<TRIPOS>MOLECULE
*****
 41 46 0 0 0
SMALL
GASTEIGER

@<TRIPOS>ATOM
      1 C         140.1639  138.4666  163.0654 C.ar    1  UNL1        0.0009
      2 C         139.1920  137.3806  163.4209 C.ar    1  UNL1        0.0002
      3 C         138.4878  137.4083  164.7450 C.ar    1  UNL1        0.0060
      4 C         138.7553  138.5219  165.7136 C.ar    1  UNL1        0.0707
      5 C         139.7272  139.6078  165.3582 C.ar    1  UNL1        0.0853
      6 N         140.1901  140.8241  166.1040 N.2     1  UNL1       -0.2455
      7 C         141.1805  141.5482  165.2409 C.2     1  UNL1        0.0774
      8 C         141.9657  142.8082  165.4546 C.2     1  UNL1        0.0164
      9 C         142.9001  143.2994  164.3890 C.2     1  UNL1       -0.0007
     10 C         143.0493  142.5305  163.1097 C.2     1  UNL1       -0.0233
     11 C         142.2640  141.2705  162.8960 C.3     1  UNL1        0.0536
     12 C         141.3296  140.7793  163.9616 C.2     1  UNL1        0.0013
     13 C         140.4314  139.5802  164.0341 C.ar    1  UNL1        0.0156
     14 C         138.9479  139.8384  160.6908 C.3     1  UNL1        0.0326
     15 C         140.2601  139.1248  160.5540 C.ar    1  UNL1       -0.0056
     16 C         140.8681  138.4389  161.7412 C.ar    1  UNL1       -0.0025
     17 C         142.1804  137.7252  161.6046 C.ar    1  UNL1       -0.0002
     18 C         142.8846  137.6975  160.2804 C.ar    1  UNL1        0.0015
     19 C         142.2766  138.3835  159.0931 C.ar    1  UNL1        0.0173
     20 C         140.9643  139.0971  159.2299 C.ar    1  UNL1        0.0643
     21 N         140.3563  139.7831  158.0425 N.ar    1  UNL1       -0.2570
     22 C         140.5286  141.2621  157.8612 C.ar    1  UNL1        0.1850
     23 N         139.9205  141.9480  156.6739 N.ar    1  UNL1       -0.2249
     24 C         139.1402  141.1550  155.6678 C.ar    1  UNL1        0.0876
     25 C         138.5322  141.8409  154.4805 C.ar    1  UNL1        0.0193
     26 C         137.7519  141.0478  153.4744 C.ar    1  UNL1        0.0015
     27 C         137.5796  139.5688  153.6557 C.ar    1  UNL1        0.0003
     28 C         138.1877  138.8829  154.8430 C.ar    1  UNL1        0.0063
     29 C         138.9680  139.6760  155.8491 C.ar    1  UNL1        0.0742
     30 C         139.5760  138.9900  157.0364 C.ar    1  UNL1        0.2672
     31 O         139.4037  137.5110  157.2176 O.2     1  UNL1       -0.2665
     32 C         138.0511  138.5495  167.0377 C.2     1  UNL1        0.2442
     33 N         138.5526  139.4401  168.1355 N.am    1  UNL1       -0.3253
     34 O         136.8451  137.6866  167.2640 O.2     1  UNL1       -0.2703
     35 H         139.3441  140.0064  167.9870 H       1  UNL1        0.1453
     36 H         138.0904  139.4582  169.0045 H       1  UNL1        0.1453
     37 C         143.6854  144.5594  164.6027 C.3     1  UNL1        0.1069
     38 C         144.6311  143.8179  165.5003 C.3     1  UNL1        0.0339
     39 C         142.7397  145.3010  163.7051 C.3     1  UNL1        0.0339
     40 O         144.4706  145.8195  164.8163 O.3     1  UNL1       -0.3827
     41 H         145.2165  145.6390  165.4096 H       1  UNL1        0.2107
@<TRIPOS>BOND
     1    14    15    1
     2    15    16   ar
     3    16     1    1
     4     1     2   ar
     5     2     3   ar
     6     3     4   ar
     7     4    32    1
     8    32    33   am
     9    32    34    2
    10     4     5   ar
    11     5     6    2
    12     6     7    1
    13     7     8    2
    14     8     9    1
    15     9    37    1
    16    37    38    1
    17    37    39    1
    18    37    40    1
    19     9    10    2
    20    10    11    1
    21    11    12    1
    22    12    13    2
    23    16    17   ar
    24    17    18   ar
    25    18    19   ar
    26    19    20   ar
    27    20    21    1
    28    21    22   ar
    29    22    23   ar
    30    23    24   ar
    31    24    25   ar
    32    25    26   ar
    33    26    27   ar
    34    27    28   ar
    35    28    29   ar
    36    29    30   ar
    37    30    31    2
    38    20    15   ar
    39    30    21   ar
    40    13     1   ar
    41    29    24   ar
    42    13     5   ar
    43    12     7    1
    44    33    35    1
    45    33    36    1
    46    40    41    1
@<TRIPOS>MOLECULE
*****
 41 46 0 0 0
SMALL
GASTEIGER

@<TRIPOS>ATOM
      1 C         140.0910  141.9109  159.7819 C.ar    1  UNL1        0.0009
      2 C         139.6009  143.3073  160.0269 C.ar    1  UNL1        0.0002
      3 C         139.9808  144.4116  159.0855 C.ar    1  UNL1        0.0060
      4 C         140.8508  144.1195  157.8991 C.ar    1  UNL1        0.0707
      5 C         141.3410  142.7232  157.6540 C.ar    1  UNL1        0.0853
      6 N         142.2052  142.1373  156.5770 N.2     1  UNL1       -0.2455
      7 C         142.3594  140.6709  156.8528 C.2     1  UNL1        0.0774
      8 C         143.1007  139.5861  156.1293 C.2     1  UNL1        0.0164
      9 C         143.0730  138.1808  156.6531 C.2     1  UNL1       -0.0007
     10 C         142.3041  137.8604  157.9006 C.2     1  UNL1       -0.0233
     11 C         141.5628  138.9453  158.6241 C.3     1  UNL1        0.0536
     12 C         141.5905  140.3505  158.1003 C.2     1  UNL1        0.0013
     13 C         140.9611  141.6189  158.5954 C.ar    1  UNL1        0.0156
     14 C         141.4240  141.6989  162.4610 C.3     1  UNL1        0.0326
     15 C         140.3776  140.7007  162.0629 C.ar    1  UNL1       -0.0056
     16 C         139.7111  140.8066  160.7233 C.ar    1  UNL1       -0.0025
     17 C         138.6646  139.8084  160.3251 C.ar    1  UNL1       -0.0002
     18 C         138.2847  138.7042  161.2666 C.ar    1  UNL1        0.0015
     19 C         138.9513  138.5982  162.6062 C.ar    1  UNL1        0.0173
     20 C         139.9977  139.5964  163.0043 C.ar    1  UNL1        0.0643
     21 N         140.6642  139.4904  164.3439 N.ar    1  UNL1       -0.2570
     22 C         142.0492  138.9242  164.4498 C.ar    1  UNL1        0.1850
     23 N         142.7157  138.8182  165.7895 N.ar    1  UNL1       -0.2249
     24 C         141.9973  139.2784  167.0232 C.ar    1  UNL1        0.0876
     25 C         142.6637  139.1724  168.3627 C.ar    1  UNL1        0.0193
     26 C         141.9452  139.6327  169.5964 C.ar    1  UNL1        0.0015
     27 C         140.5602  140.1989  169.4905 C.ar    1  UNL1        0.0003
     28 C         139.8937  140.3049  168.1509 C.ar    1  UNL1        0.0063
     29 C         140.6123  139.8446  166.9172 C.ar    1  UNL1        0.0742
     30 C         139.9458  139.9506  165.5776 C.ar    1  UNL1        0.2672
     31 O         138.5607  140.5169  165.4718 O.2     1  UNL1       -0.2665
     32 C         141.2307  145.2238  156.9577 C.2     1  UNL1        0.2442
     33 N         142.5849  145.2268  156.3126 N.am    1  UNL1       -0.3253
     34 O         140.2564  146.3251  156.6613 O.2     1  UNL1       -0.2703
     35 H         143.2244  144.5039  156.5071 H       1  UNL1        0.1453
     36 H         142.8342  145.9515  155.6948 H       1  UNL1        0.1453
     37 C         143.8143  137.0959  155.9295 C.3     1  UNL1        0.1069
     38 C         143.0625  136.0603  156.7121 C.3     1  UNL1        0.0339
     39 C         144.5660  138.1315  155.1470 C.3     1  UNL1        0.0339
     40 O         144.5556  136.0111  155.2060 O.3     1  UNL1       -0.3827
     41 H         144.2570  135.1458  155.5271 H       1  UNL1        0.2107
@<TRIPOS>BOND
     1    14    15    1
     2    15    16   ar
     3    16     1    1
     4     1     2   ar
     5     2     3   ar
     6     3     4   ar
     7     4    32    1
     8    32    33   am
     9    32    34    2
    10     4     5   ar
    11     5     6    2
    12     6     7    1
    13     7     8    2
    14     8     9    1
    15     9    37    1
    16    37    38    1
    17    37    39    1
    18    37    40    1
    19     9    10    2
    20    10    11    1
    21    11    12    1
    22    12    13    2
    23    16    17   ar
    24    17    18   ar
    25    18    19   ar
    26    19    20   ar
    27    20    21    1
    28    21    22   ar
    29    22    23   ar
    30    23    24   ar
    31    24    25   ar
    32    25    26   ar
    33    26    27   ar
    34    27    28   ar
    35    28    29   ar
    36    29    30   ar
    37    30    31    2
    38    20    15   ar
    39    30    21   ar
    40    13     1   ar
    41    29    24   ar
    42    13     5   ar
    43    12     7    1
    44    33    35    1
    45    33    36    1
    46    40    41    1
@<TRIPOS>MOLECULE
*****
 41 46 0 0 0
SMALL
GASTEIGER

@<TRIPOS>ATOM
      1 C         142.5006  142.6178  159.5560 C.ar    1  UNL1        0.0009
      2 C         142.5310  142.0849  160.9578 C.ar    1  UNL1        0.0002
      3 C         141.6663  142.7053  162.0149 C.ar    1  UNL1        0.0060
      4 C         140.7713  143.8585  161.6701 C.ar    1  UNL1        0.0707
      5 C         140.7409  144.3914  160.2683 C.ar    1  UNL1        0.0853
      6 N         139.9656  145.5089  159.6359 N.2     1  UNL1       -0.2455
      7 C         140.3510  145.5792  158.1879 C.2     1  UNL1        0.0774
      8 C         139.9100  146.4825  157.0746 C.2     1  UNL1        0.0164
      9 C         140.4827  146.3117  155.6988 C.2     1  UNL1       -0.0007
     10 C         141.4963  145.2375  155.4363 C.2     1  UNL1       -0.0233
     11 C         141.9372  144.3343  156.5497 C.3     1  UNL1        0.0536
     12 C         141.3646  144.5051  157.9255 C.2     1  UNL1        0.0013
     13 C         141.6056  143.7710  159.2112 C.ar    1  UNL1        0.0156
     14 C         141.4472  140.3523  157.8953 C.3     1  UNL1        0.0326
     15 C         142.8386  140.8646  157.6686 C.ar    1  UNL1       -0.0056
     16 C         143.3654  141.9973  158.4988 C.ar    1  UNL1       -0.0025
     17 C         144.7568  142.5097  158.2722 C.ar    1  UNL1       -0.0002
     18 C         145.6215  141.8892  157.2151 C.ar    1  UNL1        0.0015
     19 C         145.0947  140.7565  156.3848 C.ar    1  UNL1        0.0173
     20 C         143.7033  140.2442  156.6115 C.ar    1  UNL1        0.0643
     21 N         143.1765  139.1114  155.7812 N.ar    1  UNL1       -0.2570
     22 C         142.8254  139.3375  154.3405 C.ar    1  UNL1        0.1850
     23 N         142.2986  138.2048  153.5102 N.ar    1  UNL1       -0.2249
     24 C         142.1229  136.8459  154.1206 C.ar    1  UNL1        0.0876
     25 C         141.5962  135.7132  153.2903 C.ar    1  UNL1        0.0193
     26 C         141.4204  134.3543  153.9008 C.ar    1  UNL1        0.0015
     27 C         141.7715  134.1282  155.3415 C.ar    1  UNL1        0.0003
     28 C         142.2983  135.2609  156.1718 C.ar    1  UNL1        0.0063
     29 C         142.4740  136.6198  155.5613 C.ar    1  UNL1        0.0742
     30 C         143.0007  137.7525  156.3916 C.ar    1  UNL1        0.2672
     31 O         143.3518  137.5264  157.8323 O.2     1  UNL1       -0.2665
     32 C         139.9066  144.4789  162.7272 C.2     1  UNL1        0.2442
     33 N         138.4730  144.8033  162.4284 N.am    1  UNL1       -0.3253
     34 O         140.4756  144.7750  164.0832 O.2     1  UNL1       -0.2703
     35 H         138.0995  144.6090  161.5385 H       1  UNL1        0.1453
     36 H         137.9055  145.2105  163.1222 H       1  UNL1        0.1453
     37 C         140.0417  147.2150  154.5854 C.3     1  UNL1        0.1069
     38 C         141.0333  146.5659  153.6660 C.3     1  UNL1        0.0339
     39 C         139.0501  147.8641  155.5048 C.3     1  UNL1        0.0339
     40 O         139.6007  148.1182  153.4720 O.3     1  UNL1       -0.3827
     41 H         140.1102  147.9172  152.6715 H       1  UNL1        0.2107
@<TRIPOS>BOND
     1    14    15    1
     2    15    16   ar
     3    16     1    1
     4     1     2   ar
     5     2     3   ar
     6     3     4   ar
     7     4    32    1
     8    32    33   am
     9    32    34    2
    10     4     5   ar
    11     5     6    2
    12     6     7    1
    13     7     8    2
    14     8     9    1
    15     9    37    1
    16    37    38    1
    17    37    39    1
    18    37    40    1
    19     9    10    2
    20    10    11    1
    21    11    12    1
    22    12    13    2
    23    16    17   ar
    24    17    18   ar
    25    18    19   ar
    26    19    20   ar
    27    20    21    1
    28    21    22   ar
    29    22    23   ar
    30    23    24   ar
    31    24    25   ar
    32    25    26   ar
    33    26    27   ar
    34    27    28   ar
    35    28    29   ar
    36    29    30   ar
    37    30    31    2
    38    20    15   ar
    39    30    21   ar
    40    13     1   ar
    41    29    24   ar
    42    13     5   ar
    43    12     7    1
    44    33    35    1
    45    33    36    1
    46    40    41    1
@<TRIPOS>MOLECULE
*****
 41 46 0 0 0
SMALL
GASTEIGER

@<TRIPOS>ATOM
      1 C         140.0757  141.4597  158.4372 C.ar    1  UNL1        0.0009
      2 C         139.0848  142.5828  158.5206 C.ar    1  UNL1        0.0002
      3 C         137.8005  142.5087  157.7492 C.ar    1  UNL1        0.0060
      4 C         137.5071  141.3115  156.8944 C.ar    1  UNL1        0.0707
      5 C         138.4980  140.1884  156.8111 C.ar    1  UNL1        0.0853
      6 N         138.4841  138.8915  156.0576 N.2     1  UNL1       -0.2455
      7 C         139.7598  138.1641  156.3633 C.2     1  UNL1        0.0774
      8 C         140.2945  136.8396  155.9053 C.2     1  UNL1        0.0164
      9 C         141.6315  136.3625  156.3897 C.2     1  UNL1       -0.0007
     10 C         142.4338  137.2098  157.3322 C.2     1  UNL1       -0.0233
     11 C         141.8991  138.5343  157.7902 C.3     1  UNL1        0.0536
     12 C         140.5621  139.0114  157.3058 C.2     1  UNL1        0.0013
     13 C         139.7823  140.2625  157.5825 C.ar    1  UNL1        0.0156
     14 C         140.2090  140.3858  161.2352 C.3     1  UNL1        0.0326
     15 C         141.4266  140.9969  160.6077 C.ar    1  UNL1       -0.0056
     16 C         141.3600  141.5339  159.2087 C.ar    1  UNL1       -0.0025
     17 C         142.5777  142.1450  158.5811 C.ar    1  UNL1       -0.0002
     18 C         143.8619  142.2192  159.3526 C.ar    1  UNL1        0.0015
     19 C         143.9285  141.6822  160.7516 C.ar    1  UNL1        0.0173
     20 C         142.7109  141.0711  161.3791 C.ar    1  UNL1        0.0643
     21 N         142.7775  140.5341  162.7782 N.ar    1  UNL1       -0.2570
     22 C         143.0685  139.0811  163.0108 C.ar    1  UNL1        0.1850
     23 N         143.1351  138.5442  164.4098 N.ar    1  UNL1       -0.2249
     24 C         142.9107  139.4601  165.5762 C.ar    1  UNL1        0.0876
     25 C         142.9773  138.9232  166.9752 C.ar    1  UNL1        0.0193
     26 C         142.7528  139.8393  168.1416 C.ar    1  UNL1        0.0015
     27 C         142.4617  141.2922  167.9090 C.ar    1  UNL1        0.0003
     28 C         142.3951  141.8292  166.5100 C.ar    1  UNL1        0.0063
     29 C         142.6196  140.9131  165.3436 C.ar    1  UNL1        0.0742
     30 C         142.5530  141.4501  163.9446 C.ar    1  UNL1        0.2672
     31 O         142.2619  142.9032  163.7120 O.2     1  UNL1       -0.2665
     32 C         136.2228  141.2374  156.1230 C.2     1  UNL1        0.2442
     33 N         135.1604  140.2589  156.5274 N.am    1  UNL1       -0.3253
     34 O         136.0010  142.1419  154.9470 O.2     1  UNL1       -0.2703
     35 H         135.3060  139.6652  157.2992 H       1  UNL1        0.1453
     36 H         134.3175  140.2102  156.0211 H       1  UNL1        0.1453
     37 C         142.1663  135.0379  155.9317 C.3     1  UNL1        0.1069
     38 C         143.2011  135.0805  157.0167 C.3     1  UNL1        0.0339
     39 C         141.1314  134.9954  154.8468 C.3     1  UNL1        0.0339
     40 O         142.7009  133.7135  155.4737 O.3     1  UNL1       -0.3827
     41 H         143.4472  133.4539  156.0364 H       1  UNL1        0.2107
@<TRIPOS>BOND
     1    14    15    1
     2    15    16   ar
     3    16     1    1
     4     1     2   ar
     5     2     3   ar
     6     3     4   ar
     7     4    32    1
     8    32    33   am
     9    32    34    2
    10     4     5   ar
    11     5     6    2
    12     6     7    1
    13     7     8    2
    14     8     9    1
    15     9    37    1
    16    37    38    1
    17    37    39    1
    18    37    40    1
    19     9    10    2
    20    10    11    1
    21    11    12    1
    22    12    13    2
    23    16    17   ar
    24    17    18   ar
    25    18    19   ar
    26    19    20   ar
    27    20    21    1
    28    21    22   ar
    29    22    23   ar
    30    23    24   ar
    31    24    25   ar
    32    25    26   ar
    33    26    27   ar
    34    27    28   ar
    35    28    29   ar
    36    29    30   ar
    37    30    31    2
    38    20    15   ar
    39    30    21   ar
    40    13     1   ar
    41    29    24   ar
    42    13     5   ar
    43    12     7    1
    44    33    35    1
    45    33    36    1
    46    40    41    1
@<TRIPOS>MOLECULE
*****
 41 46 0 0 0
SMALL
GASTEIGER

@<TRIPOS>ATOM
      1 C         141.0687  143.7109  158.7226 C.ar    1  UNL1        0.0009
      2 C         140.8409  145.1898  158.6174 C.ar    1  UNL1        0.0002
      3 C         140.1712  145.7610  157.4029 C.ar    1  UNL1        0.0060
      4 C         139.7293  144.8534  156.2934 C.ar    1  UNL1        0.0707
      5 C         139.9572  143.3745  156.3986 C.ar    1  UNL1        0.0853
      6 N         139.6327  142.2405  155.4718 N.2     1  UNL1       -0.2455
      7 C         140.1019  140.9685  156.1136 C.2     1  UNL1        0.0774
      8 C         140.0490  139.5385  155.6639 C.2     1  UNL1        0.0164
      9 C         140.6106  138.4563  156.5376 C.2     1  UNL1       -0.0007
     10 C         141.2250  138.8041  157.8610 C.2     1  UNL1       -0.0233
     11 C         141.2779  140.2341  158.3108 C.3     1  UNL1        0.0536
     12 C         140.7163  141.3163  157.4370 C.2     1  UNL1        0.0013
     13 C         140.6269  142.8033  157.6131 C.ar    1  UNL1        0.0156
     14 C         139.4168  142.5277  160.9295 C.3     1  UNL1        0.0326
     15 C         140.9125  142.5482  161.0406 C.ar    1  UNL1       -0.0056
     16 C         141.7385  143.1397  159.9372 C.ar    1  UNL1       -0.0025
     17 C         143.2343  143.1602  160.0483 C.ar    1  UNL1       -0.0002
     18 C         143.9039  142.5890  161.2629 C.ar    1  UNL1        0.0015
     19 C         143.0779  141.9974  162.3664 C.ar    1  UNL1        0.0173
     20 C         141.5821  141.9770  162.2553 C.ar    1  UNL1        0.0643
     21 N         140.7561  141.3854  163.3587 N.ar    1  UNL1       -0.2570
     22 C         140.2744  142.2535  164.4831 C.ar    1  UNL1        0.1850
     23 N         139.4484  141.6619  165.5866 N.ar    1  UNL1       -0.2249
     24 C         139.1040  140.2021  165.5657 C.ar    1  UNL1        0.0876
     25 C         138.2780  139.6106  166.6691 C.ar    1  UNL1        0.0193
     26 C         137.9336  138.1507  166.6482 C.ar    1  UNL1        0.0015
     27 C         138.4152  137.2826  165.5238 C.ar    1  UNL1        0.0003
     28 C         139.2413  137.8742  164.4203 C.ar    1  UNL1        0.0063
     29 C         139.5856  139.3340  164.4413 C.ar    1  UNL1        0.0742
     30 C         140.4117  139.9256  163.3378 C.ar    1  UNL1        0.2672
     31 O         140.8934  139.0574  162.2134 O.2     1  UNL1       -0.2665
     32 C         139.0596  145.4246  155.0789 C.2     1  UNL1        0.2442
     33 N         139.8844  146.0366  153.9857 N.am    1  UNL1       -0.3253
     34 O         137.5650  145.3837  154.9575 O.2     1  UNL1       -0.2703
     35 H         140.8653  146.0634  154.0654 H       1  UNL1        0.1453
     36 H         139.4448  146.4115  153.1886 H       1  UNL1        0.1453
     37 C         140.5577  137.0263  156.0879 C.3     1  UNL1        0.1069
     38 C         139.1897  137.2562  155.5172 C.3     1  UNL1        0.0339
     39 C         141.9256  136.7963  156.6586 C.3     1  UNL1        0.0339
     40 O         140.5049  135.5963  155.6383 O.3     1  UNL1       -0.3827
     41 H         139.6595  135.4282  155.1934 H       1  UNL1        0.2107
@<TRIPOS>BOND
     1    14    15    1
     2    15    16   ar
     3    16     1    1
     4     1     2   ar
     5     2     3   ar
     6     3     4   ar
     7     4    32    1
     8    32    33   am
     9    32    34    2
    10     4     5   ar
    11     5     6    2
    12     6     7    1
    13     7     8    2
    14     8     9    1
    15     9    37    1
    16    37    38    1
    17    37    39    1
    18    37    40    1
    19     9    10    2
    20    10    11    1
    21    11    12    1
    22    12    13    2
    23    16    17   ar
    24    17    18   ar
    25    18    19   ar
    26    19    20   ar
    27    20    21    1
    28    21    22   ar
    29    22    23   ar
    30    23    24   ar
    31    24    25   ar
    32    25    26   ar
    33    26    27   ar
    34    27    28   ar
    35    28    29   ar
    36    29    30   ar
    37    30    31    2
    38    20    15   ar
    39    30    21   ar
    40    13     1   ar
    41    29    24   ar
    42    13     5   ar
    43    12     7    1
    44    33    35    1
    45    33    36    1
    46    40    41    1
