@<TRIPOS>MOLECULE
*****
 41 46 0 0 0
SMALL
GASTEIGER

@<TRIPOS>ATOM
      1 C         141.5329  138.6018  163.1734 C.3     1  UNL1        0.0955
      2 C         142.0300  139.1115  161.8532 C.3     1  UNL1        0.0287
      3 C         143.3576  139.8046  161.7684 C.3     1  UNL1        0.0193
      4 C         144.1881  139.9880  163.0040 C.3     1  UNL1        0.0700
      5 C         143.6910  139.4783  164.3243 C.3     1  UNL1        0.0193
      6 C         142.3635  138.7852  164.4091 C.3     1  UNL1        0.0287
      7 C         143.4672  139.6019  163.1001 C.3     1  UNL1        0.1562
      8 O         142.2668  138.9752  163.1767 O.3     1  UNL1       -0.3571
      9 N         145.5157  140.6811  162.9192 N.3     1  UNL1       -0.2926
     10 H         145.8494  140.5621  161.9628 H       1  UNL1        0.1236
     11 C         145.6197  142.1437  163.2353 C.3     1  UNL1        0.1152
     12 C         144.4125  143.0254  163.1115 C.ar    1  UNL1        0.0765
     13 C         143.8008  143.6359  164.3374 C.ar    1  UNL1        0.0193
     14 C         142.5936  144.5177  164.2136 C.ar    1  UNL1        0.0411
     15 C         141.9982  144.7890  162.8639 C.ar    1  UNL1        0.1708
     16 C         142.6100  144.1785  161.6379 C.ar    1  UNL1        0.1682
     17 N         143.8171  143.2967  161.7617 N.ar    1  UNL1       -0.2304
     18 N         142.0146  144.4497  160.2881 N.am    1  UNL1       -0.2639
     19 C         140.8075  145.3315  160.1643 C.2     1  UNL1        0.2718
     20 O         140.2121  145.6027  158.8145 O.2     1  UNL1       -0.2707
     21 C         140.1957  145.9420  161.3903 C.3     1  UNL1        0.2898
     22 O         140.7911  145.6707  162.7401 O.3     1  UNL1       -0.4628
     23 H         142.4161  144.0490  159.4834 H       1  UNL1        0.1565
     24 C         140.2054  137.9087  163.2582 C.3     1  UNL1        0.0584
     25 C         139.2754  138.2061  164.3968 C.3     1  UNL1        0.1129
     26 C         138.3454  138.5035  165.5355 C.3     1  UNL1        0.0341
     27 O         139.8479  137.0523  165.1657 O.3     1  UNL1       -0.3825
     28 H         139.4043  136.9849  166.0257 H       1  UNL1        0.2107
     29 C         139.8218  142.4095  165.9079 C.ar    1  UNL1        0.2250
     30 C         139.2494  143.5632  165.1390 C.ar    1  UNL1        0.0593
     31 C         138.4948  143.3158  163.8665 C.ar    1  UNL1        0.0254
     32 C         138.3126  141.9147  163.3628 C.ar    1  UNL1        0.0991
     33 N         137.5580  141.6673  162.0902 N.ar    1  UNL1       -0.2400
     34 C         137.3758  140.2663  161.5866 C.ar    1  UNL1        0.1282
     35 C         137.9483  139.1125  162.3554 C.ar    1  UNL1        0.1588
     36 F         137.7662  137.7114  161.8517 F       1  UNL1       -0.2027
     37 C         138.7029  139.3598  163.6280 C.ar    1  UNL1        0.0500
     38 C         138.8851  140.7610  164.1317 C.ar    1  UNL1        0.1023
     39 N         139.6397  141.0084  165.4042 N.ar    1  UNL1       -0.2103
     40 C         141.9857  142.1637  167.3247 C.3     1  UNL1        0.2542
     41 O         140.5764  142.6568  167.1804 O.3     1  UNL1       -0.4561
@<TRIPOS>BOND
     1    40    41    1
     2    41    29    1
     3    29    30   ar
     4    30    31   ar
     5    31    32   ar
     6    32    33   ar
     7    33    34   ar
     8    34    35   ar
     9    35    36    1
    10    35    37   ar
    11    37    25    1
    12    25    26    1
    13    25    27    1
    14    25    24    1
    15    24     1    1
    16     1     2    1
    17     2     3    1
    18     3     4    1
    19     4     9    1
    20     9    11    1
    21    11    12    1
    22    12    13   ar
    23    13    14   ar
    24    14    15   ar
    25    15    16   ar
    26    16    17   ar
    27    16    18    1
    28    18    19   am
    29    19    20    2
    30    19    21    1
    31    21    22    1
    32     4     5    1
    33     5     6    1
    34     4     7    1
    35     7     8    1
    36    37    38   ar
    37    38    39   ar
    38    39    29   ar
    39    38    32   ar
    40     6     1    1
    41     8     1    1
    42    17    12   ar
    43    22    15    1
    44    27    28    1
    45     9    10    1
    46    18    23    1
@<TRIPOS>MOLECULE
*****
 41 46 0 0 0
SMALL
GASTEIGER

@<TRIPOS>ATOM
      1 C         138.2048  141.5718  164.3488 C.3     1  UNL1        0.0955
      2 C         137.9152  141.5980  162.8773 C.3     1  UNL1        0.0287
      3 C         138.0365  142.8822  162.1118 C.3     1  UNL1        0.0193
      4 C         138.4473  144.1402  162.8178 C.3     1  UNL1        0.0700
      5 C         138.7369  144.1141  164.2894 C.3     1  UNL1        0.0193
      6 C         138.6157  142.8299  165.0549 C.3     1  UNL1        0.0287
      7 C         138.3945  143.4606  163.2795 C.3     1  UNL1        0.1562
      8 O         138.2848  142.2994  163.9717 O.3     1  UNL1       -0.3571
      9 N         138.5686  145.4245  162.0522 N.3     1  UNL1       -0.2926
     10 H         138.1679  146.1561  162.6392 H       1  UNL1        0.1236
     11 C         139.9177  145.9116  161.6136 C.3     1  UNL1        0.1152
     12 C         140.7857  145.0421  160.7530 C.ar    1  UNL1        0.0765
     13 C         141.0448  145.4204  159.3248 C.ar    1  UNL1        0.0193
     14 C         141.9127  144.5509  158.4642 C.ar    1  UNL1        0.0411
     15 C         142.5217  143.3032  159.0318 C.ar    1  UNL1        0.1708
     16 C         142.2626  142.9249  160.4600 C.ar    1  UNL1        0.1682
     17 N         141.3947  143.7943  161.3206 N.ar    1  UNL1       -0.2304
     18 N         142.8716  141.6770  161.0276 N.am    1  UNL1       -0.2639
     19 C         143.7396  140.8075  160.1670 C.2     1  UNL1        0.2718
     20 O         144.3485  139.5598  160.7346 O.2     1  UNL1       -0.2707
     21 C         143.9986  141.1859  158.7388 C.3     1  UNL1        0.2898
     22 O         143.3897  142.4337  158.1712 O.3     1  UNL1       -0.4628
     23 H         142.7016  141.4287  161.9650 H       1  UNL1        0.1565
     24 C         138.0835  140.2875  165.1143 C.3     1  UNL1        0.0584
     25 C         139.2143  139.3021  165.1099 C.3     1  UNL1        0.1129
     26 C         140.3452  138.3166  165.1054 C.3     1  UNL1        0.0341
     27 O         138.6948  138.7117  163.8325 O.3     1  UNL1       -0.3825
     28 H         139.2723  137.9837  163.5544 H       1  UNL1        0.2107
     29 C         142.9570  141.8003  165.0753 C.ar    1  UNL1        0.2250
     30 C         143.4765  142.3906  166.3527 C.ar    1  UNL1        0.0593
     31 C         142.7484  142.1482  167.6415 C.ar    1  UNL1        0.0254
     32 C         141.5009  141.3155  167.6531 C.ar    1  UNL1        0.0991
     33 N         140.7728  141.0732  168.9419 N.ar    1  UNL1       -0.2400
     34 C         139.5252  140.2405  168.9535 C.ar    1  UNL1        0.1282
     35 C         139.0057  139.6501  167.6761 C.ar    1  UNL1        0.1588
     36 F         137.7582  138.8174  167.6876 F       1  UNL1       -0.2027
     37 C         139.7338  139.8924  166.3872 C.ar    1  UNL1        0.0500
     38 C         140.9814  140.7252  166.3757 C.ar    1  UNL1        0.1023
     39 N         141.7095  140.9675  165.0869 N.ar    1  UNL1       -0.2103
     40 C         145.1769  141.8974  163.7291 C.3     1  UNL1        0.2542
     41 O         143.6851  142.0426  163.7865 O.3     1  UNL1       -0.4561
@<TRIPOS>BOND
     1    40    41    1
     2    41    29    1
     3    29    30   ar
     4    30    31   ar
     5    31    32   ar
     6    32    33   ar
     7    33    34   ar
     8    34    35   ar
     9    35    36    1
    10    35    37   ar
    11    37    25    1
    12    25    26    1
    13    25    27    1
    14    25    24    1
    15    24     1    1
    16     1     2    1
    17     2     3    1
    18     3     4    1
    19     4     9    1
    20     9    11    1
    21    11    12    1
    22    12    13   ar
    23    13    14   ar
    24    14    15   ar
    25    15    16   ar
    26    16    17   ar
    27    16    18    1
    28    18    19   am
    29    19    20    2
    30    19    21    1
    31    21    22    1
    32     4     5    1
    33     5     6    1
    34     4     7    1
    35     7     8    1
    36    37    38   ar
    37    38    39   ar
    38    39    29   ar
    39    38    32   ar
    40     6     1    1
    41     8     1    1
    42    17    12   ar
    43    22    15    1
    44    27    28    1
    45     9    10    1
    46    18    23    1
@<TRIPOS>MOLECULE
*****
 41 46 0 0 0
SMALL
GASTEIGER

@<TRIPOS>ATOM
      1 C         141.7037  140.2258  165.5776 C.3     1  UNL1        0.0955
      2 C         142.5441  140.2711  164.3360 C.3     1  UNL1        0.0287
      3 C         143.4554  141.4367  164.0892 C.3     1  UNL1        0.0193
      4 C         143.5263  142.5570  165.0840 C.3     1  UNL1        0.0700
      5 C         142.6859  142.5119  166.3257 C.3     1  UNL1        0.0193
      6 C         141.7746  141.3462  166.5725 C.3     1  UNL1        0.0287
      7 C         143.0121  141.9394  165.2627 C.3     1  UNL1        0.1562
      8 O         142.1881  140.8854  165.4858 O.3     1  UNL1       -0.3571
      9 N         144.4376  143.7227  164.8373 N.3     1  UNL1       -0.2926
     10 H         145.1471  143.4069  164.1759 H       1  UNL1        0.1236
     11 C         143.8828  145.0071  164.2966 C.3     1  UNL1        0.1152
     12 C         142.8478  144.9791  163.2113 C.ar    1  UNL1        0.0765
     13 C         141.4640  145.4910  163.4813 C.ar    1  UNL1        0.0193
     14 C         140.4289  145.4630  162.3960 C.ar    1  UNL1        0.0411
     15 C         140.7776  144.9230  161.0408 C.ar    1  UNL1        0.1708
     16 C         142.1614  144.4110  160.7708 C.ar    1  UNL1        0.1682
     17 N         143.1965  144.4390  161.8561 N.ar    1  UNL1       -0.2304
     18 N         142.5102  143.8710  159.4155 N.am    1  UNL1       -0.2639
     19 C         141.4751  143.8429  158.3302 C.2     1  UNL1        0.2718
     20 O         141.8238  143.3029  156.9750 O.2     1  UNL1       -0.2707
     21 C         140.0912  144.3549  158.6003 C.3     1  UNL1        0.2898
     22 O         139.7425  144.8949  159.9555 O.3     1  UNL1       -0.4628
     23 H         143.4184  143.5349  159.2383 H       1  UNL1        0.1565
     24 C         140.7924  139.0602  165.8244 C.3     1  UNL1        0.0584
     25 C         139.3420  139.2932  166.1276 C.3     1  UNL1        0.1129
     26 C         137.8916  139.5262  166.4307 C.3     1  UNL1        0.0341
     27 O         139.6621  139.3819  167.5904 O.3     1  UNL1       -0.3825
     28 H         138.8468  139.5430  168.0906 H       1  UNL1        0.2107
     29 C         138.0665  142.9749  163.8763 C.ar    1  UNL1        0.2250
     30 C         137.7464  142.8863  162.4136 C.ar    1  UNL1        0.0593
     31 C         137.8516  141.5704  161.7012 C.ar    1  UNL1        0.0254
     32 C         138.2768  140.3432  162.4516 C.ar    1  UNL1        0.0991
     33 N         138.3820  139.0274  161.7392 N.ar    1  UNL1       -0.2400
     34 C         138.8071  137.8001  162.4896 C.ar    1  UNL1        0.1282
     35 C         139.1272  137.8887  163.9524 C.ar    1  UNL1        0.1588
     36 F         139.5523  136.6615  164.7028 F       1  UNL1       -0.2027
     37 C         139.0220  139.2046  164.6648 C.ar    1  UNL1        0.0500
     38 C         138.5968  140.4319  163.9143 C.ar    1  UNL1        0.1023
     39 N         138.4916  141.7477  164.6267 N.ar    1  UNL1       -0.2103
     40 C         138.8718  144.5945  165.7414 C.3     1  UNL1        0.2542
     41 O         137.9613  144.2908  164.5887 O.3     1  UNL1       -0.4561
@<TRIPOS>BOND
     1    40    41    1
     2    41    29    1
     3    29    30   ar
     4    30    31   ar
     5    31    32   ar
     6    32    33   ar
     7    33    34   ar
     8    34    35   ar
     9    35    36    1
    10    35    37   ar
    11    37    25    1
    12    25    26    1
    13    25    27    1
    14    25    24    1
    15    24     1    1
    16     1     2    1
    17     2     3    1
    18     3     4    1
    19     4     9    1
    20     9    11    1
    21    11    12    1
    22    12    13   ar
    23    13    14   ar
    24    14    15   ar
    25    15    16   ar
    26    16    17   ar
    27    16    18    1
    28    18    19   am
    29    19    20    2
    30    19    21    1
    31    21    22    1
    32     4     5    1
    33     5     6    1
    34     4     7    1
    35     7     8    1
    36    37    38   ar
    37    38    39   ar
    38    39    29   ar
    39    38    32   ar
    40     6     1    1
    41     8     1    1
    42    17    12   ar
    43    22    15    1
    44    27    28    1
    45     9    10    1
    46    18    23    1
@<TRIPOS>MOLECULE
*****
 41 46 0 0 0
SMALL
GASTEIGER

@<TRIPOS>ATOM
      1 C         138.1006  141.1065  163.5084 C.3     1  UNL1        0.0955
      2 C         138.1360  141.4962  162.0603 C.3     1  UNL1        0.0287
      3 C         138.1559  142.9454  161.6739 C.3     1  UNL1        0.0193
      4 C         138.1402  144.0050  162.7355 C.3     1  UNL1        0.0700
      5 C         138.1048  143.6153  164.1836 C.3     1  UNL1        0.0193
      6 C         138.0850  142.1661  164.5701 C.3     1  UNL1        0.0287
      7 C         138.1284  143.2240  162.9960 C.3     1  UNL1        0.1562
      8 O         138.1105  141.9136  163.3454 O.3     1  UNL1       -0.3571
      9 N         138.1600  145.4542  162.3490 N.3     1  UNL1       -0.2926
     10 H         137.6677  145.9617  163.0842 H       1  UNL1        0.1236
     11 C         139.4687  146.1568  162.1397 C.3     1  UNL1        0.1152
     12 C         140.7486  145.3747  162.1424 C.ar    1  UNL1        0.0765
     13 C         141.5158  145.1962  163.4189 C.ar    1  UNL1        0.0193
     14 C         142.7958  144.4142  163.4216 C.ar    1  UNL1        0.0411
     15 C         143.3086  143.8106  162.1477 C.ar    1  UNL1        0.1708
     16 C         142.5414  143.9891  160.8712 C.ar    1  UNL1        0.1682
     17 N         141.2615  144.7711  160.8685 N.ar    1  UNL1       -0.2304
     18 N         143.0542  143.3855  159.5973 N.am    1  UNL1       -0.2639
     19 C         144.3342  142.6034  159.6000 C.2     1  UNL1        0.2718
     20 O         144.8470  141.9999  158.3262 O.2     1  UNL1       -0.2707
     21 C         145.1014  142.4250  160.8766 C.3     1  UNL1        0.2898
     22 O         144.5886  143.0285  162.1504 O.3     1  UNL1       -0.4628
     23 H         142.5507  143.5026  158.7595 H       1  UNL1        0.1565
     24 C         138.0808  139.6573  163.8948 C.3     1  UNL1        0.0584
     25 C         138.7867  139.2028  165.1378 C.3     1  UNL1        0.1129
     26 C         139.4926  138.7484  166.3809 C.3     1  UNL1        0.0341
     27 O         137.5601  139.5077  165.9458 O.3     1  UNL1       -0.3825
     28 H         137.7261  139.2963  166.8778 H       1  UNL1        0.2107
     29 C         142.5812  141.5152  165.8485 C.ar    1  UNL1        0.2250
     30 C         143.8076  141.2103  165.0406 C.ar    1  UNL1        0.0593
     31 C         143.7693  140.1347  163.9958 C.ar    1  UNL1        0.0254
     32 C         142.5045  139.3640  163.7589 C.ar    1  UNL1        0.0991
     33 N         142.4662  138.2884  162.7141 N.ar    1  UNL1       -0.2400
     34 C         141.2014  137.5176  162.4772 C.ar    1  UNL1        0.1282
     35 C         139.9749  137.8224  163.2851 C.ar    1  UNL1        0.1588
     36 F         138.7101  137.0516  163.0482 F       1  UNL1       -0.2027
     37 C         140.0132  138.8980  164.3299 C.ar    1  UNL1        0.0500
     38 C         141.2781  139.6688  164.5668 C.ar    1  UNL1        0.1023
     39 N         141.3164  140.7444  165.6116 N.ar    1  UNL1       -0.2103
     40 C         143.0084  142.2541  168.3023 C.3     1  UNL1        0.2542
     41 O         142.6195  142.5908  166.8933 O.3     1  UNL1       -0.4561
@<TRIPOS>BOND
     1    40    41    1
     2    41    29    1
     3    29    30   ar
     4    30    31   ar
     5    31    32   ar
     6    32    33   ar
     7    33    34   ar
     8    34    35   ar
     9    35    36    1
    10    35    37   ar
    11    37    25    1
    12    25    26    1
    13    25    27    1
    14    25    24    1
    15    24     1    1
    16     1     2    1
    17     2     3    1
    18     3     4    1
    19     4     9    1
    20     9    11    1
    21    11    12    1
    22    12    13   ar
    23    13    14   ar
    24    14    15   ar
    25    15    16   ar
    26    16    17   ar
    27    16    18    1
    28    18    19   am
    29    19    20    2
    30    19    21    1
    31    21    22    1
    32     4     5    1
    33     5     6    1
    34     4     7    1
    35     7     8    1
    36    37    38   ar
    37    38    39   ar
    38    39    29   ar
    39    38    32   ar
    40     6     1    1
    41     8     1    1
    42    17    12   ar
    43    22    15    1
    44    27    28    1
    45     9    10    1
    46    18    23    1
@<TRIPOS>MOLECULE
*****
 41 46 0 0 0
SMALL
GASTEIGER

@<TRIPOS>ATOM
      1 C         142.2424  142.2391  165.3324 C.3     1  UNL1        0.0955
      2 C         141.0658  142.3041  166.2604 C.3     1  UNL1        0.0287
      3 C         139.8890  143.1698  165.9200 C.3     1  UNL1        0.0193
      4 C         139.8890  143.9706  164.6516 C.3     1  UNL1        0.0700
      5 C         141.0657  143.9056  163.7236 C.3     1  UNL1        0.0193
      6 C         142.2424  143.0399  164.0639 C.3     1  UNL1        0.0287
      7 C         140.5565  143.5106  164.7954 C.3     1  UNL1        0.1562
      8 O         141.6205  142.7278  165.1032 O.3     1  UNL1       -0.3571
      9 N         138.7123  144.8363  164.3113 N.3     1  UNL1       -0.2926
     10 H         139.0670  145.6050  163.7424 H       1  UNL1        0.1236
     11 C         137.5424  144.2557  163.5735 C.3     1  UNL1        0.1152
     12 C         137.7447  143.1034  162.6348 C.ar    1  UNL1        0.0765
     13 C         137.4441  141.7054  163.0877 C.ar    1  UNL1        0.0193
     14 C         137.6464  140.5530  162.1490 C.ar    1  UNL1        0.0411
     15 C         138.1492  140.7987  160.7573 C.ar    1  UNL1        0.1708
     16 C         138.4498  142.1967  160.3044 C.ar    1  UNL1        0.1682
     17 N         138.2475  143.3491  161.2432 N.ar    1  UNL1       -0.2304
     18 N         138.9527  142.4425  158.9127 N.am    1  UNL1       -0.2639
     19 C         139.1549  141.2902  157.9739 C.2     1  UNL1        0.2718
     20 O         139.6578  141.5359  156.5823 O.2     1  UNL1       -0.2707
     21 C         138.8543  139.8921  158.4269 C.3     1  UNL1        0.2898
     22 O         138.3515  139.6464  159.8186 O.3     1  UNL1       -0.4628
     23 H         139.1500  143.3601  158.6154 H       1  UNL1        0.1565
     24 C         143.4191  141.3733  165.6727 C.3     1  UNL1        0.0584
     25 C         143.2022  140.0062  166.2505 C.3     1  UNL1        0.1129
     26 C         142.9853  138.6391  166.8283 C.3     1  UNL1        0.0341
     27 O         143.3013  140.5756  167.6348 O.3     1  UNL1       -0.3825
     28 H         143.1905  139.8648  168.2854 H       1  UNL1        0.2107
     29 C         139.3253  138.2218  164.8238 C.ar    1  UNL1        0.2250
     30 C         139.2262  137.6525  163.4396 C.ar    1  UNL1        0.0593
     31 C         140.4194  137.6780  162.5310 C.ar    1  UNL1        0.0254
     32 C         141.7117  138.2728  163.0065 C.ar    1  UNL1        0.0991
     33 N         142.9049  138.2983  162.0979 N.ar    1  UNL1       -0.2400
     34 C         144.1972  138.8931  162.5734 C.ar    1  UNL1        0.1282
     35 C         144.2963  139.4624  163.9577 C.ar    1  UNL1        0.1588
     36 F         145.5886  140.0572  164.4332 F       1  UNL1       -0.2027
     37 C         143.1031  139.4369  164.8663 C.ar    1  UNL1        0.0500
     38 C         141.8108  138.8421  164.3907 C.ar    1  UNL1        0.1023
     39 N         140.6176  138.8166  165.2994 N.ar    1  UNL1       -0.2103
     40 C         138.1151  139.0409  166.9719 C.3     1  UNL1        0.2542
     41 O         138.1321  138.1964  165.7325 O.3     1  UNL1       -0.4561
@<TRIPOS>BOND
     1    40    41    1
     2    41    29    1
     3    29    30   ar
     4    30    31   ar
     5    31    32   ar
     6    32    33   ar
     7    33    34   ar
     8    34    35   ar
     9    35    36    1
    10    35    37   ar
    11    37    25    1
    12    25    26    1
    13    25    27    1
    14    25    24    1
    15    24     1    1
    16     1     2    1
    17     2     3    1
    18     3     4    1
    19     4     9    1
    20     9    11    1
    21    11    12    1
    22    12    13   ar
    23    13    14   ar
    24    14    15   ar
    25    15    16   ar
    26    16    17   ar
    27    16    18    1
    28    18    19   am
    29    19    20    2
    30    19    21    1
    31    21    22    1
    32     4     5    1
    33     5     6    1
    34     4     7    1
    35     7     8    1
    36    37    38   ar
    37    38    39   ar
    38    39    29   ar
    39    38    32   ar
    40     6     1    1
    41     8     1    1
    42    17    12   ar
    43    22    15    1
    44    27    28    1
    45     9    10    1
    46    18    23    1
@<TRIPOS>MOLECULE
*****
 41 46 0 0 0
SMALL
GASTEIGER

@<TRIPOS>ATOM
      1 C         142.2833  143.2369  165.2616 C.3     1  UNL1        0.0955
      2 C         143.2415  144.0246  164.4182 C.3     1  UNL1        0.0287
      3 C         142.7232  144.9228  163.3344 C.3     1  UNL1        0.0193
      4 C         141.2468  145.0332  163.0939 C.3     1  UNL1        0.0700
      5 C         140.2885  144.2454  163.9373 C.3     1  UNL1        0.0193
      6 C         140.8067  143.3473  165.0211 C.3     1  UNL1        0.0287
      7 C         141.4834  144.5279  163.6994 C.3     1  UNL1        0.1562
      8 O         141.9520  143.7159  164.6794 O.3     1  UNL1       -0.3571
      9 N         140.7285  145.9313  162.0100 N.3     1  UNL1       -0.2926
     10 H         141.4544  146.6249  161.8302 H       1  UNL1        0.1236
     11 C         140.3408  145.3555  160.6803 C.3     1  UNL1        0.1152
     12 C         141.0544  144.1479  160.1491 C.ar    1  UNL1        0.0765
     13 C         140.5019  142.7771  160.4054 C.ar    1  UNL1        0.0193
     14 C         141.2156  141.5694  159.8742 C.ar    1  UNL1        0.0411
     15 C         142.4818  141.7325  159.0867 C.ar    1  UNL1        0.1708
     16 C         143.0343  143.1032  158.8304 C.ar    1  UNL1        0.1682
     17 N         142.3206  144.3109  159.3617 N.ar    1  UNL1       -0.2304
     18 N         144.3005  143.2663  158.0429 N.am    1  UNL1       -0.2639
     19 C         145.0142  142.0586  157.5117 C.2     1  UNL1        0.2718
     20 O         146.2803  142.2217  156.7242 O.2     1  UNL1       -0.2707
     21 C         144.4616  140.6878  157.7680 C.3     1  UNL1        0.2898
     22 O         143.1954  140.5248  158.5555 O.3     1  UNL1       -0.4628
     23 H         144.6632  144.1660  157.8747 H       1  UNL1        0.1565
     24 C         142.8015  142.3388  166.3455 C.3     1  UNL1        0.0584
     25 C         143.0006  140.8766  166.0766 C.3     1  UNL1        0.1129
     26 C         143.1997  139.4144  165.8077 C.3     1  UNL1        0.0341
     27 O         144.0419  141.2074  165.0487 O.3     1  UNL1       -0.3825
     28 H         144.3877  140.3872  164.6632 H       1  UNL1        0.2107
     29 C         138.9887  139.2975  164.7877 C.ar    1  UNL1        0.2250
     30 C         137.9475  138.9668  165.8155 C.ar    1  UNL1        0.0593
     31 C         138.2435  139.1624  167.2729 C.ar    1  UNL1        0.0254
     32 C         139.5808  139.6887  167.7025 C.ar    1  UNL1        0.0991
     33 N         139.8768  139.8843  169.1600 N.ar    1  UNL1       -0.2400
     34 C         141.2141  140.4106  169.5896 C.ar    1  UNL1        0.1282
     35 C         142.2554  140.7414  168.5618 C.ar    1  UNL1        0.1588
     36 F         143.5927  141.2677  168.9914 F       1  UNL1       -0.2027
     37 C         141.9594  140.5458  167.1044 C.ar    1  UNL1        0.0500
     38 C         140.6220  140.0195  166.6747 C.ar    1  UNL1        0.1023
     39 N         140.3260  139.8239  165.2173 N.ar    1  UNL1       -0.2103
     40 C         139.3904  138.0190  162.5619 C.3     1  UNL1        0.2542
     41 O         138.6927  139.1020  163.3302 O.3     1  UNL1       -0.4561
@<TRIPOS>BOND
     1    40    41    1
     2    41    29    1
     3    29    30   ar
     4    30    31   ar
     5    31    32   ar
     6    32    33   ar
     7    33    34   ar
     8    34    35   ar
     9    35    36    1
    10    35    37   ar
    11    37    25    1
    12    25    26    1
    13    25    27    1
    14    25    24    1
    15    24     1    1
    16     1     2    1
    17     2     3    1
    18     3     4    1
    19     4     9    1
    20     9    11    1
    21    11    12    1
    22    12    13   ar
    23    13    14   ar
    24    14    15   ar
    25    15    16   ar
    26    16    17   ar
    27    16    18    1
    28    18    19   am
    29    19    20    2
    30    19    21    1
    31    21    22    1
    32     4     5    1
    33     5     6    1
    34     4     7    1
    35     7     8    1
    36    37    38   ar
    37    38    39   ar
    38    39    29   ar
    39    38    32   ar
    40     6     1    1
    41     8     1    1
    42    17    12   ar
    43    22    15    1
    44    27    28    1
    45     9    10    1
    46    18    23    1
@<TRIPOS>MOLECULE
*****
 41 46 0 0 0
SMALL
GASTEIGER

@<TRIPOS>ATOM
      1 C         141.7204  138.4836  164.5632 C.3     1  UNL1        0.0955
      2 C         141.8412  138.1239  163.1120 C.3     1  UNL1        0.0287
      3 C         140.6147  137.7802  162.3199 C.3     1  UNL1        0.0193
      4 C         139.2674  137.7962  162.9789 C.3     1  UNL1        0.0700
      5 C         139.1465  138.1559  164.4301 C.3     1  UNL1        0.0193
      6 C         140.3730  138.4996  165.2223 C.3     1  UNL1        0.0287
      7 C         139.9108  137.9918  163.4539 C.3     1  UNL1        0.1562
      8 O         141.0198  138.3026  164.1702 O.3     1  UNL1       -0.3571
      9 N         138.0409  137.4525  162.1867 N.3     1  UNL1       -0.2926
     10 H         137.2923  137.2878  162.8597 H       1  UNL1        0.1236
     11 C         137.5068  138.4208  161.1733 C.3     1  UNL1        0.1152
     12 C         137.8016  139.8854  161.3073 C.ar    1  UNL1        0.0765
     13 C         138.3191  140.6571  160.1297 C.ar    1  UNL1        0.0193
     14 C         138.6139  142.1217  160.2637 C.ar    1  UNL1        0.0411
     15 C         138.3912  142.8147  161.5753 C.ar    1  UNL1        0.1708
     16 C         137.8738  142.0430  162.7528 C.ar    1  UNL1        0.1682
     17 N         137.5789  140.5784  162.6188 N.ar    1  UNL1       -0.2304
     18 N         137.6511  142.7359  164.0645 N.am    1  UNL1       -0.2639
     19 C         137.9459  144.2006  164.1985 C.2     1  UNL1        0.2718
     20 O         137.7232  144.8935  165.5100 O.2     1  UNL1       -0.2707
     21 C         138.4634  144.9722  163.0208 C.3     1  UNL1        0.2898
     22 O         138.6861  144.2793  161.7093 O.3     1  UNL1       -0.4628
     23 H         137.3114  142.2295  164.8374 H       1  UNL1        0.1565
     24 C         142.9469  138.8273  165.3553 C.3     1  UNL1        0.0584
     25 C         143.8839  139.8903  164.8635 C.3     1  UNL1        0.1129
     26 C         144.8209  140.9534  164.3716 C.3     1  UNL1        0.0341
     27 O         144.9230  138.8451  164.5841 O.3     1  UNL1       -0.3825
     28 H         145.7183  139.2680  164.2240 H       1  UNL1        0.2107
     29 C         142.5482  140.6616  169.0909 C.ar    1  UNL1        0.2250
     30 C         141.5092  141.7068  169.3702 C.ar    1  UNL1        0.0593
     31 C         140.9153  142.4948  168.2404 C.ar    1  UNL1        0.0254
     32 C         141.3606  142.2377  166.8313 C.ar    1  UNL1        0.0991
     33 N         140.7667  143.0257  165.7016 N.ar    1  UNL1       -0.2400
     34 C         141.2120  142.7686  164.2925 C.ar    1  UNL1        0.1282
     35 C         142.2511  141.7235  164.0130 C.ar    1  UNL1        0.1588
     36 F         142.6963  141.4664  162.6039 F       1  UNL1       -0.2027
     37 C         142.8449  140.9355  165.1428 C.ar    1  UNL1        0.0500
     38 C         142.3996  141.1926  166.5520 C.ar    1  UNL1        0.1023
     39 N         142.9934  140.4046  167.6818 N.ar    1  UNL1       -0.2103
     40 C         142.9482  138.3875  170.2817 C.3     1  UNL1        0.2542
     41 O         143.1420  139.8736  170.2206 O.3     1  UNL1       -0.4561
@<TRIPOS>BOND
     1    40    41    1
     2    41    29    1
     3    29    30   ar
     4    30    31   ar
     5    31    32   ar
     6    32    33   ar
     7    33    34   ar
     8    34    35   ar
     9    35    36    1
    10    35    37   ar
    11    37    25    1
    12    25    26    1
    13    25    27    1
    14    25    24    1
    15    24     1    1
    16     1     2    1
    17     2     3    1
    18     3     4    1
    19     4     9    1
    20     9    11    1
    21    11    12    1
    22    12    13   ar
    23    13    14   ar
    24    14    15   ar
    25    15    16   ar
    26    16    17   ar
    27    16    18    1
    28    18    19   am
    29    19    20    2
    30    19    21    1
    31    21    22    1
    32     4     5    1
    33     5     6    1
    34     4     7    1
    35     7     8    1
    36    37    38   ar
    37    38    39   ar
    38    39    29   ar
    39    38    32   ar
    40     6     1    1
    41     8     1    1
    42    17    12   ar
    43    22    15    1
    44    27    28    1
    45     9    10    1
    46    18    23    1
@<TRIPOS>MOLECULE
*****
 41 46 0 0 0
SMALL
GASTEIGER

@<TRIPOS>ATOM
      1 C         142.2743  143.2529  165.4155 C.3     1  UNL1        0.0955
      2 C         143.2002  144.0693  164.5634 C.3     1  UNL1        0.0287
      3 C         142.6413  145.0235  163.5499 C.3     1  UNL1        0.0193
      4 C         141.1565  145.1614  163.3886 C.3     1  UNL1        0.0700
      5 C         140.2304  144.3450  164.2407 C.3     1  UNL1        0.0193
      6 C         140.7893  143.3908  165.2541 C.3     1  UNL1        0.0287
      7 C         141.4158  144.6254  163.9572 C.3     1  UNL1        0.1562
      8 O         141.9212  143.7626  164.8736 O.3     1  UNL1       -0.3571
      9 N         140.5976  146.1156  162.3751 N.3     1  UNL1       -0.2926
     10 H         141.1108  146.9908  162.4803 H       1  UNL1        0.1236
     11 C         140.6320  145.7660  160.9169 C.3     1  UNL1        0.1152
     12 C         140.5552  144.3308  160.4877 C.ar    1  UNL1        0.0765
     13 C         141.7358  143.6805  159.8296 C.ar    1  UNL1        0.0193
     14 C         141.6590  142.2453  159.4004 C.ar    1  UNL1        0.0411
     15 C         140.4015  141.4603  159.6293 C.ar    1  UNL1        0.1708
     16 C         139.2208  142.1106  160.2874 C.ar    1  UNL1        0.1682
     17 N         139.2976  143.5458  160.7165 N.ar    1  UNL1       -0.2304
     18 N         137.9632  141.3256  160.5162 N.am    1  UNL1       -0.2639
     19 C         137.8863  139.8904  160.0871 C.2     1  UNL1        0.2718
     20 O         136.6288  139.1055  160.3159 O.2     1  UNL1       -0.2707
     21 C         139.0671  139.2401  159.4290 C.3     1  UNL1        0.2898
     22 O         140.3246  140.0251  159.2001 O.3     1  UNL1       -0.4628
     23 H         137.1882  141.7525  160.9482 H       1  UNL1        0.1565
     24 C         142.8332  142.2987  166.4289 C.3     1  UNL1        0.0584
     25 C         142.9473  140.8393  166.1019 C.3     1  UNL1        0.1129
     26 C         143.0614  139.3798  165.7749 C.3     1  UNL1        0.0341
     27 O         143.9507  141.1572  165.0332 O.3     1  UNL1       -0.3825
     28 H         144.2366  140.3360  164.6035 H       1  UNL1        0.2107
     29 C         138.8823  139.2710  164.9766 C.ar    1  UNL1        0.2250
     30 C         137.8789  138.9531  166.0452 C.ar    1  UNL1        0.0593
     31 C         138.2304  139.1580  167.4890 C.ar    1  UNL1        0.0254
     32 C         139.5854  139.6807  167.8641 C.ar    1  UNL1        0.0991
     33 N         139.9369  139.8856  169.3079 N.ar    1  UNL1       -0.2400
     34 C         141.2919  140.4083  169.6830 C.ar    1  UNL1        0.1282
     35 C         142.2954  140.7262  168.6143 C.ar    1  UNL1        0.1588
     36 F         143.6504  141.2490  168.9895 F       1  UNL1       -0.2027
     37 C         141.9438  140.5214  167.1706 C.ar    1  UNL1        0.0500
     38 C         140.5888  139.9986  166.7955 C.ar    1  UNL1        0.1023
     39 N         140.2372  139.7938  165.3517 N.ar    1  UNL1       -0.2103
     40 C         138.8314  137.7565  162.8662 C.3     1  UNL1        0.2542
     41 O         138.5307  139.0662  163.5328 O.3     1  UNL1       -0.4561
@<TRIPOS>BOND
     1    40    41    1
     2    41    29    1
     3    29    30   ar
     4    30    31   ar
     5    31    32   ar
     6    32    33   ar
     7    33    34   ar
     8    34    35   ar
     9    35    36    1
    10    35    37   ar
    11    37    25    1
    12    25    26    1
    13    25    27    1
    14    25    24    1
    15    24     1    1
    16     1     2    1
    17     2     3    1
    18     3     4    1
    19     4     9    1
    20     9    11    1
    21    11    12    1
    22    12    13   ar
    23    13    14   ar
    24    14    15   ar
    25    15    16   ar
    26    16    17   ar
    27    16    18    1
    28    18    19   am
    29    19    20    2
    30    19    21    1
    31    21    22    1
    32     4     5    1
    33     5     6    1
    34     4     7    1
    35     7     8    1
    36    37    38   ar
    37    38    39   ar
    38    39    29   ar
    39    38    32   ar
    40     6     1    1
    41     8     1    1
    42    17    12   ar
    43    22    15    1
    44    27    28    1
    45     9    10    1
    46    18    23    1
@<TRIPOS>MOLECULE
*****
 41 46 0 0 0
SMALL
GASTEIGER

@<TRIPOS>ATOM
      1 C         140.0132  138.3291  160.8086 C.3     1  UNL1        0.0955
      2 C         141.1085  137.9609  161.7650 C.3     1  UNL1        0.0287
      3 C         140.7797  137.6312  163.1909 C.3     1  UNL1        0.0193
      4 C         139.3556  137.6696  163.6604 C.3     1  UNL1        0.0700
      5 C         138.2602  138.0377  162.7039 C.3     1  UNL1        0.0193
      6 C         138.5890  138.3675  161.2780 C.3     1  UNL1        0.0287
      7 C         139.4868  137.8581  162.8697 C.3     1  UNL1        0.1562
      8 O         139.7841  138.1563  161.5804 O.3     1  UNL1       -0.3571
      9 N         139.0268  137.3398  165.0862 N.3     1  UNL1       -0.2926
     10 H         139.9120  137.1503  165.5563 H       1  UNL1        0.1236
     11 C         138.2898  138.3330  165.9350 C.3     1  UNL1        0.1152
     12 C         139.0323  139.4654  166.5802 C.ar    1  UNL1        0.0765
     13 C         139.8080  140.4317  165.7350 C.ar    1  UNL1        0.0193
     14 C         140.5506  141.5641  166.3802 C.ar    1  UNL1        0.0411
     15 C         140.5173  141.7302  167.8706 C.ar    1  UNL1        0.1708
     16 C         139.7416  140.7639  168.7157 C.ar    1  UNL1        0.1682
     17 N         138.9991  139.6315  168.0705 N.ar    1  UNL1       -0.2304
     18 N         139.7084  140.9299  170.2062 N.am    1  UNL1       -0.2639
     19 C         140.4509  142.0624  170.8514 C.2     1  UNL1        0.2718
     20 O         140.4177  142.2284  172.3418 O.2     1  UNL1       -0.2707
     21 C         141.2267  143.0287  170.0061 C.3     1  UNL1        0.2898
     22 O         141.2599  142.8626  168.5158 O.3     1  UNL1       -0.4628
     23 H         139.1992  140.2957  170.7609 H       1  UNL1        0.1565
     24 C         140.3420  138.6588  159.3827 C.3     1  UNL1        0.0584
     25 C         139.9823  140.0026  158.8215 C.3     1  UNL1        0.1129
     26 C         139.6227  141.3463  158.2604 C.3     1  UNL1        0.0341
     27 O         138.6918  139.4406  158.3030 O.3     1  UNL1       -0.3825
     28 H         138.1943  140.1387  157.8491 H       1  UNL1        0.2107
     29 C         139.9941  142.5727  162.5154 C.ar    1  UNL1        0.2250
     30 C         141.2845  143.1346  163.0339 C.ar    1  UNL1        0.0593
     31 C         142.5711  142.8398  162.3212 C.ar    1  UNL1        0.0254
     32 C         142.5672  141.9832  161.0899 C.ar    1  UNL1        0.0991
     33 N         143.8537  141.6884  160.3772 N.ar    1  UNL1       -0.2400
     34 C         143.8498  140.8317  159.1460 C.ar    1  UNL1        0.1282
     35 C         142.5593  140.2698  158.6274 C.ar    1  UNL1        0.1588
     36 F         142.5554  139.4131  157.3961 F       1  UNL1       -0.2027
     37 C         141.2728  140.5645  159.3401 C.ar    1  UNL1        0.0500
     38 C         141.2767  141.4212  160.5714 C.ar    1  UNL1        0.1023
     39 N         139.9902  141.7160  161.2841 N.ar    1  UNL1       -0.2103
     40 C         137.5326  141.9494  163.0652 C.3     1  UNL1        0.2542
     41 O         138.7076  142.8674  163.2281 O.3     1  UNL1       -0.4561
@<TRIPOS>BOND
     1    40    41    1
     2    41    29    1
     3    29    30   ar
     4    30    31   ar
     5    31    32   ar
     6    32    33   ar
     7    33    34   ar
     8    34    35   ar
     9    35    36    1
    10    35    37   ar
    11    37    25    1
    12    25    26    1
    13    25    27    1
    14    25    24    1
    15    24     1    1
    16     1     2    1
    17     2     3    1
    18     3     4    1
    19     4     9    1
    20     9    11    1
    21    11    12    1
    22    12    13   ar
    23    13    14   ar
    24    14    15   ar
    25    15    16   ar
    26    16    17   ar
    27    16    18    1
    28    18    19   am
    29    19    20    2
    30    19    21    1
    31    21    22    1
    32     4     5    1
    33     5     6    1
    34     4     7    1
    35     7     8    1
    36    37    38   ar
    37    38    39   ar
    38    39    29   ar
    39    38    32   ar
    40     6     1    1
    41     8     1    1
    42    17    12   ar
    43    22    15    1
    44    27    28    1
    45     9    10    1
    46    18    23    1
