@<TRIPOS>MOLECULE
*****
 38 41 0 0 0
SMALL
GASTEIGER

@<TRIPOS>ATOM
      1 C         144.4343  139.8831  163.2354 C.3     1  UNL1        0.0854
      2 C         143.9266  139.4590  161.8891 C.3     1  UNL1        0.0118
      3 C         144.1762  140.3216  160.6876 C.3     1  UNL1        0.0179
      4 C         143.6685  139.8974  159.3413 C.3     1  UNL1        0.0725
      5 N         142.9112  138.6107  159.1967 N.3     1  UNL1       -0.2663
      6 C         142.6616  137.7482  160.3982 C.3     1  UNL1        0.0725
      7 C         143.1693  138.1723  161.7444 C.3     1  UNL1        0.0179
      8 C         142.4034  138.1865  157.8504 C.3     1  UNL1        0.1376
      9 C         142.9294  136.9360  157.2104 C.ar    1  UNL1        0.1390
     10 C         143.5709  136.8405  155.8578 C.ar    1  UNL1        0.0375
     11 C         143.9442  135.4070  155.6220 C.ar    1  UNL1        0.0403
     12 C         143.5334  134.6165  156.8289 C.ar    1  UNL1        0.1449
     13 O         142.9063  135.5615  157.8105 O.2     1  UNL1       -0.4564
     14 C         143.7175  133.1402  157.0204 C.ar    1  UNL1        0.0346
     15 C         142.7590  132.1763  156.3862 C.ar    1  UNL1        0.0039
     16 C         142.9431  130.7000  156.5777 C.ar    1  UNL1        0.0115
     17 C         144.0857  130.1877  157.4035 C.ar    1  UNL1        0.0577
     18 CL        144.2698  128.7114  157.5951 Cl      1  UNL1       -0.0822
     19 C         145.0442  131.1516  158.0378 C.ar    1  UNL1        0.0115
     20 C         144.8601  132.6277  157.8462 C.ar    1  UNL1        0.0039
     21 N         143.5143  142.1177  164.1895 N.am    1  UNL1       -0.2729
     22 C         143.5304  140.6178  164.1805 C.2     1  UNL1        0.2259
     23 O         142.6425  139.8526  165.1165 O.2     1  UNL1       -0.2749
     24 C         144.4022  142.8829  163.2534 C.3     1  UNL1        0.1254
     25 C         143.8238  143.9578  162.3816 C.3     1  UNL1        0.1597
     26 O         144.0419  145.4013  162.7264 O.3     1  UNL1       -0.3801
     27 H         143.6049  145.9611  162.0657 H       1  UNL1        0.2105
     28 C         143.0274  143.5893  161.1652 C.3     1  UNL1        0.1731
     29 C         140.8642  144.8398  160.4530 C.3     1  UNL1        0.1742
     30 O         142.3502  144.6584  160.3598 O.3     1  UNL1       -0.3485
     31 C         142.6104  142.8524  165.1345 C.3     1  UNL1        0.1202
     32 C         141.2226  143.2274  164.7060 C.ar    1  UNL1       -0.0022
     33 C         140.1392  142.1903  164.6816 C.ar    1  UNL1       -0.0003
     34 C         138.7516  142.5654  164.2531 C.ar    1  UNL1        0.0294
     35 C         138.4473  143.9776  163.8492 C.ar    1  UNL1        0.1401
     36 F         137.0595  144.3526  163.4207 F       1  UNL1       -0.2042
     37 C         139.5307  145.0147  163.8737 C.ar    1  UNL1        0.0294
     38 C         140.9183  144.6396  164.3021 C.ar    1  UNL1       -0.0003
@<TRIPOS>BOND
     1    29    30    1
     2    30    28    1
     3    28    25    1
     4    25    26    1
     5    25    24    1
     6    24    21    1
     7    21    31    1
     8    31    32    1
     9    32    33   ar
    10    33    34   ar
    11    34    35   ar
    12    35    36    1
    13    35    37   ar
    14    37    38   ar
    15    21    22   am
    16    22    23    2
    17    22     1    1
    18     1     2    1
    19     2     3    1
    20     3     4    1
    21     4     5    1
    22     5     8    1
    23     8     9    1
    24     9    10   ar
    25    10    11   ar
    26    11    12   ar
    27    12    14    1
    28    14    15   ar
    29    15    16   ar
    30    16    17   ar
    31    17    18    1
    32    17    19   ar
    33    19    20   ar
    34    12    13   ar
    35     5     6    1
    36     6     7    1
    37    38    32   ar
    38     7     2    1
    39    13     9   ar
    40    20    14   ar
    41    26    27    1
@<TRIPOS>MOLECULE
*****
 38 41 0 0 0
SMALL
GASTEIGER

@<TRIPOS>ATOM
      1 C         139.2181  138.0880  162.8457 C.3     1  UNL1        0.0854
      2 C         140.0613  138.1638  161.6075 C.3     1  UNL1        0.0118
      3 C         139.4192  138.4273  160.2777 C.3     1  UNL1        0.0179
      4 C         140.2624  138.5031  159.0395 C.3     1  UNL1        0.0725
      5 N         141.7479  138.3155  159.1310 N.3     1  UNL1       -0.2663
      6 C         142.3900  138.0521  160.4608 C.3     1  UNL1        0.0725
      7 C         141.5467  137.9762  161.6990 C.3     1  UNL1        0.0179
      8 C         142.5911  138.3913  157.8928 C.3     1  UNL1        0.1376
      9 C         143.0272  137.1321  157.2041 C.ar    1  UNL1        0.1390
     10 C         143.5752  137.0334  155.8113 C.ar    1  UNL1        0.0375
     11 C         143.8785  135.5908  155.5336 C.ar    1  UNL1        0.0403
     12 C         143.5178  134.7980  156.7549 C.ar    1  UNL1        0.1449
     13 O         142.9917  135.7505  157.7872 O.2     1  UNL1       -0.4564
     14 C         143.6586  133.3133  156.9155 C.ar    1  UNL1        0.0346
     15 C         142.6935  132.3902  156.2325 C.ar    1  UNL1        0.0039
     16 C         142.8343  130.9054  156.3931 C.ar    1  UNL1        0.0115
     17 C         143.9401  130.3439  157.2367 C.ar    1  UNL1        0.0577
     18 CL        144.0808  128.8591  157.3973 Cl      1  UNL1       -0.0822
     19 C         144.9052  131.2670  157.9197 C.ar    1  UNL1        0.0115
     20 C         144.7644  132.7516  157.7591 C.ar    1  UNL1        0.0039
     21 N         139.4259  140.3964  164.0196 N.am    1  UNL1       -0.2729
     22 C         139.5800  138.9047  164.0507 C.2     1  UNL1        0.2259
     23 O         140.0960  138.2296  165.2868 O.2     1  UNL1       -0.2749
     24 C         138.9098  141.0715  162.7834 C.3     1  UNL1        0.1254
     25 C         137.7257  141.9883  162.8683 C.3     1  UNL1        0.1597
     26 O         136.3869  141.4485  163.2761 O.3     1  UNL1       -0.3801
     27 H         135.7360  142.1676  163.2802 H       1  UNL1        0.2105
     28 C         137.8804  143.4449  162.5453 C.3     1  UNL1        0.1731
     29 C         138.3153  144.5225  164.8690 C.3     1  UNL1        0.1742
     30 O         138.7065  144.3266  163.4342 O.3     1  UNL1       -0.3485
     31 C         139.7878  141.2131  165.2246 C.3     1  UNL1        0.1202
     32 C         141.1478  141.8377  165.3264 C.ar    1  UNL1       -0.0022
     33 C         141.6996  142.6252  164.1752 C.ar    1  UNL1       -0.0003
     34 C         143.0595  143.2498  164.2771 C.ar    1  UNL1        0.0294
     35 C         143.8677  143.0868  165.5303 C.ar    1  UNL1        0.1401
     36 F         145.2277  143.7115  165.6321 F       1  UNL1       -0.2042
     37 C         143.3159  142.2994  166.6815 C.ar    1  UNL1        0.0294
     38 C         141.9559  141.6748  166.5796 C.ar    1  UNL1       -0.0003
@<TRIPOS>BOND
     1    29    30    1
     2    30    28    1
     3    28    25    1
     4    25    26    1
     5    25    24    1
     6    24    21    1
     7    21    31    1
     8    31    32    1
     9    32    33   ar
    10    33    34   ar
    11    34    35   ar
    12    35    36    1
    13    35    37   ar
    14    37    38   ar
    15    21    22   am
    16    22    23    2
    17    22     1    1
    18     1     2    1
    19     2     3    1
    20     3     4    1
    21     4     5    1
    22     5     8    1
    23     8     9    1
    24     9    10   ar
    25    10    11   ar
    26    11    12   ar
    27    12    14    1
    28    14    15   ar
    29    15    16   ar
    30    16    17   ar
    31    17    18    1
    32    17    19   ar
    33    19    20   ar
    34    12    13   ar
    35     5     6    1
    36     6     7    1
    37    38    32   ar
    38     7     2    1
    39    13     9   ar
    40    20    14   ar
    41    26    27    1
@<TRIPOS>MOLECULE
*****
 38 41 0 0 0
SMALL
GASTEIGER

@<TRIPOS>ATOM
      1 C         139.8144  138.2148  162.9985 C.3     1  UNL1        0.0854
      2 C         140.5357  138.1952  161.6834 C.3     1  UNL1        0.0118
      3 C         142.0048  137.8957  161.6381 C.3     1  UNL1        0.0179
      4 C         142.7260  137.8761  160.3231 C.3     1  UNL1        0.0725
      5 N         141.9781  138.1559  159.0532 N.3     1  UNL1       -0.2663
      6 C         140.5090  138.4554  159.0986 C.3     1  UNL1        0.0725
      7 C         139.7878  138.4750  160.4136 C.3     1  UNL1        0.0179
      8 C         142.6993  138.1363  157.7382 C.3     1  UNL1        0.1376
      9 C         142.9716  136.8308  157.0515 C.ar    1  UNL1        0.1390
     10 C         143.0836  136.6200  155.5706 C.ar    1  UNL1        0.0375
     11 C         143.3609  135.1658  155.3289 C.ar    1  UNL1        0.0403
     12 C         143.4201  134.4778  156.6605 C.ar    1  UNL1        0.1449
     13 O         143.1795  135.5068  157.7251 O.2     1  UNL1       -0.4564
     14 C         143.6752  133.0172  156.8877 C.ar    1  UNL1        0.0346
     15 C         142.8018  131.9918  156.2275 C.ar    1  UNL1        0.0039
     16 C         143.0569  130.5312  156.4547 C.ar    1  UNL1        0.0115
     17 C         144.1853  130.0960  157.3419 C.ar    1  UNL1        0.0577
     18 CL        144.4403  128.6354  157.5691 Cl      1  UNL1       -0.0822
     19 C         145.0587  131.1215  158.0021 C.ar    1  UNL1        0.0115
     20 C         144.8036  132.5819  157.7750 C.ar    1  UNL1        0.0039
     21 N         140.6915  139.5604  165.0406 N.am    1  UNL1       -0.2729
     22 C         140.5924  138.2715  164.2798 C.2     1  UNL1        0.2259
     23 O         141.2712  137.0393  164.8002 O.2     1  UNL1       -0.2749
     24 C         140.0127  140.7926  164.5201 C.3     1  UNL1        0.1254
     25 C         138.5367  140.9749  164.7154 C.3     1  UNL1        0.1597
     26 O         137.7511  139.9575  165.4886 O.3     1  UNL1       -0.3801
     27 H         136.8192  140.2247  165.5205 H       1  UNL1        0.2105
     28 C         137.8463  142.1747  164.1376 C.3     1  UNL1        0.1731
     29 C         137.8315  141.4110  161.6543 C.3     1  UNL1        0.1742
     30 O         137.1481  142.0731  162.8139 O.3     1  UNL1       -0.3485
     31 C         141.4695  139.6171  166.3218 C.3     1  UNL1        0.1202
     32 C         140.9765  140.4580  167.4620 C.ar    1  UNL1       -0.0022
     33 C         139.9289  139.9213  168.3916 C.ar    1  UNL1       -0.0003
     34 C         139.4360  140.7622  169.5317 C.ar    1  UNL1        0.0294
     35 C         139.9907  142.1399  169.7422 C.ar    1  UNL1        0.1401
     36 F         139.4978  142.9808  170.8823 F       1  UNL1       -0.2042
     37 C         141.0384  142.6766  168.8125 C.ar    1  UNL1        0.0294
     38 C         141.5312  141.8357  167.6724 C.ar    1  UNL1       -0.0003
@<TRIPOS>BOND
     1    29    30    1
     2    30    28    1
     3    28    25    1
     4    25    26    1
     5    25    24    1
     6    24    21    1
     7    21    31    1
     8    31    32    1
     9    32    33   ar
    10    33    34   ar
    11    34    35   ar
    12    35    36    1
    13    35    37   ar
    14    37    38   ar
    15    21    22   am
    16    22    23    2
    17    22     1    1
    18     1     2    1
    19     2     3    1
    20     3     4    1
    21     4     5    1
    22     5     8    1
    23     8     9    1
    24     9    10   ar
    25    10    11   ar
    26    11    12   ar
    27    12    14    1
    28    14    15   ar
    29    15    16   ar
    30    16    17   ar
    31    17    18    1
    32    17    19   ar
    33    19    20   ar
    34    12    13   ar
    35     5     6    1
    36     6     7    1
    37    38    32   ar
    38     7     2    1
    39    13     9   ar
    40    20    14   ar
    41    26    27    1
@<TRIPOS>MOLECULE
*****
 38 41 0 0 0
SMALL
GASTEIGER

@<TRIPOS>ATOM
      1 C         144.5387  139.6646  163.3364 C.3     1  UNL1        0.0854
      2 C         143.9973  139.3161  161.9816 C.3     1  UNL1        0.0118
      3 C         143.5538  137.9132  161.6894 C.3     1  UNL1        0.0179
      4 C         143.0125  137.5646  160.3346 C.3     1  UNL1        0.0725
      5 N         142.9145  138.6190  159.2721 N.3     1  UNL1       -0.2663
      6 C         143.3580  140.0218  159.5644 C.3     1  UNL1        0.0725
      7 C         143.8993  140.3703  160.9192 C.3     1  UNL1        0.0179
      8 C         142.3732  138.2704  157.9173 C.3     1  UNL1        0.1376
      9 C         142.9698  137.1340  157.1409 C.ar    1  UNL1        0.1390
     10 C         143.6257  137.2338  155.7956 C.ar    1  UNL1        0.0375
     11 C         144.0765  135.8599  155.3966 C.ar    1  UNL1        0.0403
     12 C         143.6992  134.9110  156.4954 C.ar    1  UNL1        0.1449
     13 O         143.0152  135.6985  157.5734 O.2     1  UNL1       -0.4564
     14 C         143.9600  133.4339  156.5131 C.ar    1  UNL1        0.0346
     15 C         144.6057  132.8006  157.7098 C.ar    1  UNL1        0.0039
     16 C         144.8666  131.3236  157.7274 C.ar    1  UNL1        0.0115
     17 C         144.4817  130.4799  156.5485 C.ar    1  UNL1        0.0577
     18 CL        144.7426  129.0029  156.5661 Cl      1  UNL1       -0.0822
     19 C         143.8360  131.1132  155.3517 C.ar    1  UNL1        0.0115
     20 C         143.5752  132.5902  155.3341 C.ar    1  UNL1        0.0039
     21 N         142.6669  141.0905  164.4379 N.am    1  UNL1       -0.2729
     22 C         144.0976  140.9257  164.0186 C.2     1  UNL1        0.2259
     23 O         145.0873  142.0217  164.2815 O.2     1  UNL1       -0.2749
     24 C         141.6772  139.9944  164.1750 C.3     1  UNL1        0.1254
     25 C         141.6277  138.7965  165.0764 C.3     1  UNL1        0.1597
     26 O         142.0723  138.9134  166.5042 O.3     1  UNL1       -0.3801
     27 H         141.9768  138.0541  166.9440 H       1  UNL1        0.2105
     28 C         141.1335  137.4817  164.5500 C.3     1  UNL1        0.1731
     29 C         138.9321  137.6218  163.1773 C.3     1  UNL1        0.1742
     30 O         140.4177  137.4223  163.2331 O.3     1  UNL1       -0.3485
     31 C         142.2258  142.3515  165.1201 C.3     1  UNL1        0.1202
     32 C         142.0765  142.3842  166.6123 C.ar    1  UNL1       -0.0022
     33 C         140.7171  142.5397  167.2268 C.ar    1  UNL1       -0.0003
     34 C         140.5678  142.5724  168.7190 C.ar    1  UNL1        0.0294
     35 C         141.7781  142.4495  169.5967 C.ar    1  UNL1        0.1401
     36 F         141.6288  142.4822  171.0889 F       1  UNL1       -0.2042
     37 C         143.1375  142.2940  168.9821 C.ar    1  UNL1        0.0294
     38 C         143.2867  142.2613  167.4900 C.ar    1  UNL1       -0.0003
@<TRIPOS>BOND
     1    29    30    1
     2    30    28    1
     3    28    25    1
     4    25    26    1
     5    25    24    1
     6    24    21    1
     7    21    31    1
     8    31    32    1
     9    32    33   ar
    10    33    34   ar
    11    34    35   ar
    12    35    36    1
    13    35    37   ar
    14    37    38   ar
    15    21    22   am
    16    22    23    2
    17    22     1    1
    18     1     2    1
    19     2     3    1
    20     3     4    1
    21     4     5    1
    22     5     8    1
    23     8     9    1
    24     9    10   ar
    25    10    11   ar
    26    11    12   ar
    27    12    14    1
    28    14    15   ar
    29    15    16   ar
    30    16    17   ar
    31    17    18    1
    32    17    19   ar
    33    19    20   ar
    34    12    13   ar
    35     5     6    1
    36     6     7    1
    37    38    32   ar
    38     7     2    1
    39    13     9   ar
    40    20    14   ar
    41    26    27    1
@<TRIPOS>MOLECULE
*****
 38 41 0 0 0
SMALL
GASTEIGER

@<TRIPOS>ATOM
      1 C         142.0599  138.0019  164.2862 C.3     1  UNL1        0.0854
      2 C         142.1685  138.0847  162.7925 C.3     1  UNL1        0.0118
      3 C         143.5184  138.1113  162.1389 C.3     1  UNL1        0.0179
      4 C         143.6270  138.1941  160.6452 C.3     1  UNL1        0.0725
      5 N         142.3856  138.2502  159.8049 N.3     1  UNL1       -0.2663
      6 C         141.0358  138.2236  160.4584 C.3     1  UNL1        0.0725
      7 C         140.9272  138.1408  161.9522 C.3     1  UNL1        0.0179
      8 C         142.4942  138.3330  158.3111 C.3     1  UNL1        0.1376
      9 C         142.8867  137.1209  157.5194 C.ar    1  UNL1        0.1390
     10 C         143.2821  137.1029  156.0725 C.ar    1  UNL1        0.0375
     11 C         143.5924  135.6849  155.6944 C.ar    1  UNL1        0.0403
     12 C         143.3889  134.8265  156.9076 C.ar    1  UNL1        0.1449
     13 O         142.9527  135.7140  158.0355 O.2     1  UNL1       -0.4564
     14 C         143.5868  133.3414  156.9801 C.ar    1  UNL1        0.0346
     15 C         142.6366  132.4226  156.2709 C.ar    1  UNL1        0.0039
     16 C         142.8345  130.9375  156.3435 C.ar    1  UNL1        0.0115
     17 C         143.9825  130.3712  157.1252 C.ar    1  UNL1        0.0577
     18 CL        144.1804  128.8861  157.1978 Cl      1  UNL1       -0.0822
     19 C         144.9328  131.2900  157.8345 C.ar    1  UNL1        0.0115
     20 C         144.7348  132.7750  157.7619 C.ar    1  UNL1        0.0039
     21 N         141.4490  140.2163  165.5001 N.am    1  UNL1       -0.2729
     22 C         141.0604  138.8516  165.0138 C.2     1  UNL1        0.2259
     23 O         139.6724  138.3365  165.2549 O.2     1  UNL1       -0.2749
     24 C         142.8370  140.7314  165.2589 C.3     1  UNL1        0.1254
     25 C         143.1126  141.6232  164.0848 C.3     1  UNL1        0.1597
     26 O         142.1923  141.6097  162.9004 O.3     1  UNL1       -0.3801
     27 H         142.5119  142.2394  162.2354 H       1  UNL1        0.2105
     28 C         144.3084  142.5286  164.0951 C.3     1  UNL1        0.1731
     29 C         143.8736  144.9207  163.1791 C.3     1  UNL1        0.1742
     30 O         144.4791  143.5580  163.0174 O.3     1  UNL1       -0.3485
     31 C         140.4496  141.0659  166.2276 C.3     1  UNL1        0.1202
     32 C         139.5894  142.0304  165.4661 C.ar    1  UNL1       -0.0022
     33 C         138.4752  141.5202  164.6012 C.ar    1  UNL1       -0.0003
     34 C         137.6151  142.4847  163.8397 C.ar    1  UNL1        0.0294
     35 C         137.8693  143.9594  163.9430 C.ar    1  UNL1        0.1401
     36 F         137.0091  144.9239  163.1814 F       1  UNL1       -0.2042
     37 C         138.9835  144.4696  164.8078 C.ar    1  UNL1        0.0294
     38 C         139.8436  143.5051  165.5694 C.ar    1  UNL1       -0.0003
@<TRIPOS>BOND
     1    29    30    1
     2    30    28    1
     3    28    25    1
     4    25    26    1
     5    25    24    1
     6    24    21    1
     7    21    31    1
     8    31    32    1
     9    32    33   ar
    10    33    34   ar
    11    34    35   ar
    12    35    36    1
    13    35    37   ar
    14    37    38   ar
    15    21    22   am
    16    22    23    2
    17    22     1    1
    18     1     2    1
    19     2     3    1
    20     3     4    1
    21     4     5    1
    22     5     8    1
    23     8     9    1
    24     9    10   ar
    25    10    11   ar
    26    11    12   ar
    27    12    14    1
    28    14    15   ar
    29    15    16   ar
    30    16    17   ar
    31    17    18    1
    32    17    19   ar
    33    19    20   ar
    34    12    13   ar
    35     5     6    1
    36     6     7    1
    37    38    32   ar
    38     7     2    1
    39    13     9   ar
    40    20    14   ar
    41    26    27    1
@<TRIPOS>MOLECULE
*****
 38 41 0 0 0
SMALL
GASTEIGER

@<TRIPOS>ATOM
      1 C         140.1976  138.2700  163.1289 C.3     1  UNL1        0.0854
      2 C         140.7978  138.2562  161.7543 C.3     1  UNL1        0.0118
      3 C         139.9439  138.5640  160.5600 C.3     1  UNL1        0.0179
      4 C         140.5441  138.5502  159.1854 C.3     1  UNL1        0.0725
      5 N         141.9981  138.2287  159.0050 N.3     1  UNL1       -0.2663
      6 C         142.8519  137.9209  160.1993 C.3     1  UNL1        0.0725
      7 C         142.2517  137.9347  161.5739 C.3     1  UNL1        0.0179
      8 C         142.5983  138.2149  157.6304 C.3     1  UNL1        0.1376
      9 C         142.9568  136.9108  156.9816 C.ar    1  UNL1        0.1390
     10 C         143.2769  136.7067  155.5304 C.ar    1  UNL1        0.0375
     11 C         143.5761  135.2517  155.3219 C.ar    1  UNL1        0.0403
     12 C         143.4410  134.5566  156.6443 C.ar    1  UNL1        0.1449
     13 O         143.0583  135.5820  157.6700 O.2     1  UNL1       -0.4564
     14 C         143.6516  133.0931  156.8967 C.ar    1  UNL1        0.0346
     15 C         144.7924  132.6369  157.7572 C.ar    1  UNL1        0.0039
     16 C         145.0031  131.1734  158.0095 C.ar    1  UNL1        0.0115
     17 C         144.0729  130.1660  157.4014 C.ar    1  UNL1        0.0577
     18 CL        144.2835  128.7025  157.6538 Cl      1  UNL1       -0.0822
     19 C         142.9320  130.6222  156.5409 C.ar    1  UNL1        0.0115
     20 C         142.7214  132.0856  156.2886 C.ar    1  UNL1        0.0039
     21 N         141.0264  140.1709  164.6941 N.am    1  UNL1       -0.2729
     22 C         141.0172  138.7235  164.3006 C.2     1  UNL1        0.2259
     23 O         141.8275  137.7295  165.0787 O.2     1  UNL1       -0.2749
     24 C         140.2160  141.1648  163.9160 C.3     1  UNL1        0.1254
     25 C         138.9950  141.7824  164.5306 C.3     1  UNL1        0.1597
     26 O         137.7208  140.9961  164.6199 O.3     1  UNL1       -0.3801
     27 H         137.0351  141.5382  165.0404 H       1  UNL1        0.2105
     28 C         139.0483  143.1864  165.0558 C.3     1  UNL1        0.1731
     29 C         137.7417  144.2097  163.0569 C.3     1  UNL1        0.1742
     30 O         138.7719  144.3412  164.1392 O.3     1  UNL1       -0.3485
     31 C         141.8458  140.6244  165.8657 C.3     1  UNL1        0.1202
     32 C         141.3693  140.3572  167.2627 C.ar    1  UNL1       -0.0022
     33 C         142.3270  139.8434  168.2965 C.ar    1  UNL1       -0.0003
     34 C         141.8505  139.5762  169.6934 C.ar    1  UNL1        0.0294
     35 C         140.4162  139.8228  170.0566 C.ar    1  UNL1        0.1401
     36 F         139.9396  139.5555  171.4536 F       1  UNL1       -0.2042
     37 C         139.4584  140.3366  169.0228 C.ar    1  UNL1        0.0294
     38 C         139.9350  140.6038  167.6259 C.ar    1  UNL1       -0.0003
@<TRIPOS>BOND
     1    29    30    1
     2    30    28    1
     3    28    25    1
     4    25    26    1
     5    25    24    1
     6    24    21    1
     7    21    31    1
     8    31    32    1
     9    32    33   ar
    10    33    34   ar
    11    34    35   ar
    12    35    36    1
    13    35    37   ar
    14    37    38   ar
    15    21    22   am
    16    22    23    2
    17    22     1    1
    18     1     2    1
    19     2     3    1
    20     3     4    1
    21     4     5    1
    22     5     8    1
    23     8     9    1
    24     9    10   ar
    25    10    11   ar
    26    11    12   ar
    27    12    14    1
    28    14    15   ar
    29    15    16   ar
    30    16    17   ar
    31    17    18    1
    32    17    19   ar
    33    19    20   ar
    34    12    13   ar
    35     5     6    1
    36     6     7    1
    37    38    32   ar
    38     7     2    1
    39    13     9   ar
    40    20    14   ar
    41    26    27    1
@<TRIPOS>MOLECULE
*****
 38 41 0 0 0
SMALL
GASTEIGER

@<TRIPOS>ATOM
      1 C         138.7580  137.7371  162.6769 C.3     1  UNL1        0.0854
      2 C         138.6682  138.4881  161.3815 C.3     1  UNL1        0.0118
      3 C         137.6531  139.5801  161.2165 C.3     1  UNL1        0.0179
      4 C         137.5633  140.3311  159.9212 C.3     1  UNL1        0.0725
      5 N         138.4887  139.9902  158.7909 N.3     1  UNL1       -0.2663
      6 C         139.5038  138.8982  158.9559 C.3     1  UNL1        0.0725
      7 C         139.5935  138.1472  160.2513 C.3     1  UNL1        0.0179
      8 C         138.3990  140.7412  157.4955 C.3     1  UNL1        0.1376
      9 C         137.0831  140.8556  156.7846 C.ar    1  UNL1        0.1390
     10 C         136.8383  141.5799  155.4940 C.ar    1  UNL1        0.0375
     11 C         135.3850  141.4378  155.1511 C.ar    1  UNL1        0.0403
     12 C         134.7315  140.6257  156.2299 C.ar    1  UNL1        0.1449
     13 O         135.7810  140.2660  157.2393 O.2     1  UNL1       -0.4564
     14 C         133.2829  140.2410  156.2887 C.ar    1  UNL1        0.0346
     15 C         132.2361  141.1777  155.7625 C.ar    1  UNL1        0.0039
     16 C         130.7875  140.7930  155.8213 C.ar    1  UNL1        0.0115
     17 C         130.3856  139.4716  156.4064 C.ar    1  UNL1        0.0577
     18 CL        128.9370  139.0869  156.4653 Cl      1  UNL1       -0.0822
     19 C         131.4324  138.5349  156.9327 C.ar    1  UNL1        0.0115
     20 C         132.8809  138.9196  156.8738 C.ar    1  UNL1        0.0039
     21 N         140.1074  138.7023  164.6763 N.am    1  UNL1       -0.2729
     22 C         140.0182  137.7901  163.4888 C.2     1  UNL1        0.2259
     23 O         141.1891  136.9311  163.1133 O.2     1  UNL1       -0.2749
     24 C         138.9364  139.5613  165.0518 C.3     1  UNL1        0.1254
     25 C         139.1628  140.9278  165.6275 C.3     1  UNL1        0.1597
     26 O         139.5874  141.0780  167.0583 O.3     1  UNL1       -0.3801
     27 H         139.6888  142.0195  167.2683 H       1  UNL1        0.2105
     28 C         138.9645  142.1441  164.7724 C.3     1  UNL1        0.1731
     29 C         137.6928  143.2445  162.7919 C.3     1  UNL1        0.1742
     30 O         137.7221  142.2839  163.9436 O.3     1  UNL1       -0.3485
     31 C         141.3675  138.7554  165.4882 C.3     1  UNL1        0.1202
     32 C         142.5699  139.4804  164.9603 C.ar    1  UNL1       -0.0022
     33 C         142.4572  140.9178  164.5468 C.ar    1  UNL1       -0.0003
     34 C         143.6596  141.6428  164.0189 C.ar    1  UNL1        0.0294
     35 C         144.9746  140.9304  163.9046 C.ar    1  UNL1        0.1401
     36 F         146.1770  141.6554  163.3767 F       1  UNL1       -0.2042
     37 C         145.0873  139.4929  164.3182 C.ar    1  UNL1        0.0294
     38 C         143.8850  138.7680  164.8460 C.ar    1  UNL1       -0.0003
@<TRIPOS>BOND
     1    29    30    1
     2    30    28    1
     3    28    25    1
     4    25    26    1
     5    25    24    1
     6    24    21    1
     7    21    31    1
     8    31    32    1
     9    32    33   ar
    10    33    34   ar
    11    34    35   ar
    12    35    36    1
    13    35    37   ar
    14    37    38   ar
    15    21    22   am
    16    22    23    2
    17    22     1    1
    18     1     2    1
    19     2     3    1
    20     3     4    1
    21     4     5    1
    22     5     8    1
    23     8     9    1
    24     9    10   ar
    25    10    11   ar
    26    11    12   ar
    27    12    14    1
    28    14    15   ar
    29    15    16   ar
    30    16    17   ar
    31    17    18    1
    32    17    19   ar
    33    19    20   ar
    34    12    13   ar
    35     5     6    1
    36     6     7    1
    37    38    32   ar
    38     7     2    1
    39    13     9   ar
    40    20    14   ar
    41    26    27    1
@<TRIPOS>MOLECULE
*****
 38 41 0 0 0
SMALL
GASTEIGER

@<TRIPOS>ATOM
      1 C         144.7600  140.6803  162.6069 C.3     1  UNL1        0.0854
      2 C         144.1532  140.0924  161.3674 C.3     1  UNL1        0.0118
      3 C         143.8696  138.6212  161.2964 C.3     1  UNL1        0.0179
      4 C         143.2628  138.0333  160.0570 C.3     1  UNL1        0.0725
      5 N         142.9396  138.9168  158.8885 N.3     1  UNL1       -0.2663
      6 C         143.2232  140.3880  158.9596 C.3     1  UNL1        0.0725
      7 C         143.8300  140.9758  160.1990 C.3     1  UNL1        0.0179
      8 C         142.3328  138.3289  157.6491 C.3     1  UNL1        0.1376
      9 C         142.9044  137.0751  157.0562 C.ar    1  UNL1        0.1390
     10 C         143.6530  136.9744  155.7603 C.ar    1  UNL1        0.0375
     11 C         144.0390  135.5390  155.5583 C.ar    1  UNL1        0.0403
     12 C         143.5289  134.7527  156.7295 C.ar    1  UNL1        0.1449
     13 O         142.8277  135.7021  157.6552 O.2     1  UNL1       -0.4564
     14 C         143.6915  133.2762  156.9383 C.ar    1  UNL1        0.0346
     15 C         144.8131  132.7581  157.7889 C.ar    1  UNL1        0.0039
     16 C         144.9757  131.2816  157.9976 C.ar    1  UNL1        0.0115
     17 C         144.0168  130.3233  157.3558 C.ar    1  UNL1        0.0577
     18 CL        144.1794  128.8468  157.5645 Cl      1  UNL1       -0.0822
     19 C         142.8951  130.8415  156.5051 C.ar    1  UNL1        0.0115
     20 C         142.7326  132.3179  156.2964 C.ar    1  UNL1        0.0039
     21 N         143.1350  140.6027  164.6327 N.am    1  UNL1       -0.2729
     22 C         144.3888  140.1358  163.9545 C.2     1  UNL1        0.2259
     23 O         145.2715  139.1244  164.6238 O.2     1  UNL1       -0.2749
     24 C         142.2524  141.6141  163.9633 C.3     1  UNL1        0.1254
     25 C         142.0291  142.9535  164.6007 C.3     1  UNL1        0.1597
     26 O         143.1486  143.9498  164.6643 O.3     1  UNL1       -0.3801
     27 H         142.8386  144.7568  165.1043 H       1  UNL1        0.2105
     28 C         140.6863  143.2964  165.1746 C.3     1  UNL1        0.1731
     29 C         138.6367  144.8874  165.3079 C.3     1  UNL1        0.1742
     30 O         139.9951  144.5619  164.7613 O.3     1  UNL1       -0.3485
     31 C         142.7639  140.0583  165.9802 C.3     1  UNL1        0.1202
     32 C         141.3407  139.6849  166.2722 C.ar    1  UNL1       -0.0022
     33 C         140.5972  138.7760  165.3390 C.ar    1  UNL1       -0.0003
     34 C         139.1741  138.4026  165.6311 C.ar    1  UNL1        0.0294
     35 C         138.4946  138.9381  166.8564 C.ar    1  UNL1        0.1401
     36 F         137.0714  138.5647  167.1485 F       1  UNL1       -0.2042
     37 C         139.2381  139.8470  167.7896 C.ar    1  UNL1        0.0294
     38 C         140.6612  140.2204  167.4976 C.ar    1  UNL1       -0.0003
@<TRIPOS>BOND
     1    29    30    1
     2    30    28    1
     3    28    25    1
     4    25    26    1
     5    25    24    1
     6    24    21    1
     7    21    31    1
     8    31    32    1
     9    32    33   ar
    10    33    34   ar
    11    34    35   ar
    12    35    36    1
    13    35    37   ar
    14    37    38   ar
    15    21    22   am
    16    22    23    2
    17    22     1    1
    18     1     2    1
    19     2     3    1
    20     3     4    1
    21     4     5    1
    22     5     8    1
    23     8     9    1
    24     9    10   ar
    25    10    11   ar
    26    11    12   ar
    27    12    14    1
    28    14    15   ar
    29    15    16   ar
    30    16    17   ar
    31    17    18    1
    32    17    19   ar
    33    19    20   ar
    34    12    13   ar
    35     5     6    1
    36     6     7    1
    37    38    32   ar
    38     7     2    1
    39    13     9   ar
    40    20    14   ar
    41    26    27    1
@<TRIPOS>MOLECULE
*****
 38 41 0 0 0
SMALL
GASTEIGER

@<TRIPOS>ATOM
      1 C         139.1138  138.5133  162.3799 C.3     1  UNL1        0.0854
      2 C         139.9641  138.4435  161.1462 C.3     1  UNL1        0.0118
      3 C         141.4287  138.1400  161.2610 C.3     1  UNL1        0.0179
      4 C         142.2791  138.0702  160.0273 C.3     1  UNL1        0.0725
      5 N         141.6649  138.3040  158.6789 N.3     1  UNL1       -0.2663
      6 C         140.2004  138.6074  158.5642 C.3     1  UNL1        0.0725
      7 C         139.3501  138.6772  159.7978 C.3     1  UNL1        0.0179
      8 C         142.5153  138.2342  157.4452 C.3     1  UNL1        0.1376
      9 C         142.8599  136.9028  156.8462 C.ar    1  UNL1        0.1390
     10 C         143.0798  136.6219  155.3892 C.ar    1  UNL1        0.0375
     11 C         143.4010  135.1641  155.2415 C.ar    1  UNL1        0.0403
     12 C         143.3796  134.5441  156.6072 C.ar    1  UNL1        0.1449
     13 O         143.0452  135.6187  157.5989 O.2     1  UNL1       -0.4564
     14 C         143.6458  133.1026  156.9253 C.ar    1  UNL1        0.0346
     15 C         142.7205  132.0384  156.4142 C.ar    1  UNL1        0.0039
     16 C         142.9867  130.5969  156.7323 C.ar    1  UNL1        0.0115
     17 C         144.1783  130.2196  157.5615 C.ar    1  UNL1        0.0577
     18 CL        144.4445  128.7781  157.8797 Cl      1  UNL1       -0.0822
     19 C         145.1037  131.2838  158.0727 C.ar    1  UNL1        0.0115
     20 C         144.8374  132.7252  157.7546 C.ar    1  UNL1        0.0039
     21 N         138.8061  140.7918  163.5899 N.am    1  UNL1       -0.2729
     22 C         139.4781  139.4545  163.4897 C.2     1  UNL1        0.2259
     23 O         140.5143  139.0583  164.4992 O.2     1  UNL1       -0.2749
     24 C         137.7698  141.1879  162.5803 C.3     1  UNL1        0.1254
     25 C         137.9740  142.4109  161.7362 C.3     1  UNL1        0.1597
     26 O         137.3460  143.7126  162.1374 O.3     1  UNL1       -0.3801
     27 H         137.5755  144.3960  161.4884 H       1  UNL1        0.2105
     28 C         138.8062  142.3320  160.4907 C.3     1  UNL1        0.1731
     29 C         138.3513  142.1313  157.9407 C.3     1  UNL1        0.1742
     30 O         138.2990  142.9275  159.2108 O.3     1  UNL1       -0.3485
     31 C         139.1703  141.7329  164.6996 C.3     1  UNL1        0.1202
     32 C         140.3432  142.6554  164.5461 C.ar    1  UNL1       -0.0022
     33 C         141.7300  142.1590  164.8298 C.ar    1  UNL1       -0.0003
     34 C         142.9028  143.0814  164.6763 C.ar    1  UNL1        0.0294
     35 C         142.6888  144.5003  164.2390 C.ar    1  UNL1        0.1401
     36 F         143.8617  145.4227  164.0855 F       1  UNL1       -0.2042
     37 C         141.3021  144.9966  163.9553 C.ar    1  UNL1        0.0294
     38 C         140.1293  144.0742  164.1088 C.ar    1  UNL1       -0.0003
@<TRIPOS>BOND
     1    29    30    1
     2    30    28    1
     3    28    25    1
     4    25    26    1
     5    25    24    1
     6    24    21    1
     7    21    31    1
     8    31    32    1
     9    32    33   ar
    10    33    34   ar
    11    34    35   ar
    12    35    36    1
    13    35    37   ar
    14    37    38   ar
    15    21    22   am
    16    22    23    2
    17    22     1    1
    18     1     2    1
    19     2     3    1
    20     3     4    1
    21     4     5    1
    22     5     8    1
    23     8     9    1
    24     9    10   ar
    25    10    11   ar
    26    11    12   ar
    27    12    14    1
    28    14    15   ar
    29    15    16   ar
    30    16    17   ar
    31    17    18    1
    32    17    19   ar
    33    19    20   ar
    34    12    13   ar
    35     5     6    1
    36     6     7    1
    37    38    32   ar
    38     7     2    1
    39    13     9   ar
    40    20    14   ar
    41    26    27    1
