@<TRIPOS>MOLECULE
*****
 33 37 0 0 0
SMALL
GASTEIGER

@<TRIPOS>ATOM
      1 C         141.0235  141.6545  162.9568 C.3     1  UNL1        0.2308
      2 N         141.9077  142.4061  162.0065 N.2     1  UNL1       -0.0614
      3 C         141.2831  143.7462  161.7536 C.2     1  UNL1        0.3157
      4 N         141.8324  144.8210  160.8630 N.pl3   1  UNL1       -0.2464
      5 C         140.0129  143.8229  162.5477 C.ar    1  UNL1        0.1094
      6 C         138.9816  144.9028  162.6897 C.ar    1  UNL1        0.1470
      7 F         139.1421  146.1956  161.9460 F       1  UNL1       -0.2039
      8 C         137.7899  144.6900  163.5753 C.ar    1  UNL1        0.0299
      9 C         137.6294  143.3972  164.3190 C.ar    1  UNL1        0.0021
     10 C         138.6607  142.3173  164.1770 C.ar    1  UNL1        0.0008
     11 C         139.8524  142.5301  163.2913 C.ar    1  UNL1        0.0390
     12 H         142.6783  144.6760  160.3806 H       1  UNL1        0.2884
     13 H         141.3470  145.6714  160.7609 H       1  UNL1        0.2884
     14 C         142.9804  137.6178  160.3347 C.3     1  UNL1        0.0521
     15 C         143.0332  138.5562  161.5037 C.ar    1  UNL1        0.0588
     16 C         142.0020  139.6361  161.6458 C.ar    1  UNL1        0.0151
     17 C         142.0548  140.5746  162.8148 C.ar    1  UNL1        0.0320
     18 C         143.1389  140.4331  163.8417 C.ar    1  UNL1        0.0151
     19 C         144.1702  139.3532  163.6997 C.ar    1  UNL1        0.0588
     20 C         145.2544  139.2116  164.7266 C.3     1  UNL1        0.0521
     21 N         144.1174  138.4147  162.5307 N.ar    1  UNL1       -0.2540
     22 C         140.3548  140.6772  163.8775 C.ar    1  UNL1        0.0297
     23 C         139.4868  139.5906  163.3155 C.ar    1  UNL1        0.0004
     24 C         138.8181  138.6132  164.2363 C.ar    1  UNL1       -0.0002
     25 C         139.0175  138.7224  165.7189 C.ar    1  UNL1        0.0001
     26 C         139.8856  139.8090  166.2809 C.ar    1  UNL1        0.0028
     27 C         140.5542  140.7864  165.3603 C.ar    1  UNL1        0.0005
     28 C         140.0850  139.9183  167.7636 C.ar    1  UNL1        0.0384
     29 C         141.4713  140.0087  168.3292 C.ar    1  UNL1        0.1022
     30 N         141.6708  140.1180  169.8119 N.ar    1  UNL1       -0.2224
     31 C         140.4839  140.1368  170.7289 C.ar    1  UNL1        0.1989
     32 N         139.0976  140.0464  170.1632 N.ar    1  UNL1       -0.2224
     33 C         138.8981  139.9371  168.6806 C.ar    1  UNL1        0.1022
@<TRIPOS>BOND
     1    14    15    1
     2    15    16   ar
     3    16    17   ar
     4    17     1    1
     5     1    22    1
     6    22    23   ar
     7    23    24   ar
     8    24    25   ar
     9    25    26   ar
    10    26    28    1
    11    28    29   ar
    12    29    30   ar
    13    30    31   ar
    14    31    32   ar
    15    32    33   ar
    16    26    27   ar
    17     1     2    1
    18     2     3    2
    19     3     4    1
    20     3     5    1
    21     5     6   ar
    22     6     7    1
    23     6     8   ar
    24     8     9   ar
    25     9    10   ar
    26    10    11   ar
    27    17    18   ar
    28    18    19   ar
    29    19    20    1
    30    19    21   ar
    31    21    15   ar
    32    11     1    1
    33    27    22   ar
    34    11     5   ar
    35    33    28   ar
    36     4    12    1
    37     4    13    1
@<TRIPOS>MOLECULE
*****
 33 37 0 0 0
SMALL
GASTEIGER

@<TRIPOS>ATOM
      1 C         141.0199  141.6518  162.9557 C.3     1  UNL1        0.2308
      2 N         141.9054  142.4037  162.0067 N.2     1  UNL1       -0.0614
      3 C         141.2811  143.7439  161.7535 C.2     1  UNL1        0.3157
      4 N         141.8315  144.8190  160.8640 N.pl3   1  UNL1       -0.2464
      5 C         140.0098  143.8203  162.5459 C.ar    1  UNL1        0.1094
      6 C         138.9784  144.9002  162.6869 C.ar    1  UNL1        0.1470
      7 F         139.1399  146.1932  161.9439 F       1  UNL1       -0.2039
      8 C         137.7855  144.6871  163.5709 C.ar    1  UNL1        0.0299
      9 C         137.6240  143.3941  164.3139 C.ar    1  UNL1        0.0021
     10 C         138.6554  142.3142  164.1729 C.ar    1  UNL1        0.0008
     11 C         139.8484  142.5273  163.2889 C.ar    1  UNL1        0.0390
     12 H         142.6780  144.6742  160.3826 H       1  UNL1        0.2884
     13 H         141.3463  145.6694  160.7615 H       1  UNL1        0.2884
     14 C         145.2494  139.2094  164.7295 C.3     1  UNL1        0.0521
     15 C         144.1661  139.3507  163.7015 C.ar    1  UNL1        0.0588
     16 C         143.1346  140.4306  163.8425 C.ar    1  UNL1        0.0151
     17 C         142.0514  140.5719  162.8146 C.ar    1  UNL1        0.0320
     18 C         141.9996  139.6333  161.6457 C.ar    1  UNL1        0.0151
     19 C         143.0311  138.5535  161.5047 C.ar    1  UNL1        0.0588
     20 C         142.9794  137.6148  160.3358 C.3     1  UNL1        0.0521
     21 N         144.1143  138.4122  162.5326 N.ar    1  UNL1       -0.2540
     22 C         140.3500  140.6741  163.8751 C.ar    1  UNL1        0.0297
     23 C         139.4819  139.5884  163.3117 C.ar    1  UNL1        0.0004
     24 C         138.8120  138.6107  164.2313 C.ar    1  UNL1       -0.0002
     25 C         139.0103  138.7188  165.7141 C.ar    1  UNL1        0.0001
     26 C         139.8784  139.8046  166.2776 C.ar    1  UNL1        0.0028
     27 C         140.5483  140.7822  165.3581 C.ar    1  UNL1        0.0005
     28 C         140.0767  139.9127  167.7605 C.ar    1  UNL1        0.0384
     29 C         141.4627  139.9993  168.3274 C.ar    1  UNL1        0.1022
     30 N         141.6612  140.1074  169.8103 N.ar    1  UNL1       -0.2224
     31 C         140.4735  140.1289  170.7262 C.ar    1  UNL1        0.1989
     32 N         139.0874  140.0423  170.1592 N.ar    1  UNL1       -0.2224
     33 C         138.8890  139.9342  168.6764 C.ar    1  UNL1        0.1022
@<TRIPOS>BOND
     1    14    15    1
     2    15    16   ar
     3    16    17   ar
     4    17     1    1
     5     1    22    1
     6    22    23   ar
     7    23    24   ar
     8    24    25   ar
     9    25    26   ar
    10    26    28    1
    11    28    29   ar
    12    29    30   ar
    13    30    31   ar
    14    31    32   ar
    15    32    33   ar
    16    26    27   ar
    17     1     2    1
    18     2     3    2
    19     3     4    1
    20     3     5    1
    21     5     6   ar
    22     6     7    1
    23     6     8   ar
    24     8     9   ar
    25     9    10   ar
    26    10    11   ar
    27    17    18   ar
    28    18    19   ar
    29    19    20    1
    30    19    21   ar
    31    21    15   ar
    32    11     1    1
    33    27    22   ar
    34    11     5   ar
    35    33    28   ar
    36     4    12    1
    37     4    13    1
@<TRIPOS>MOLECULE
*****
 33 37 0 0 0
SMALL
GASTEIGER

@<TRIPOS>ATOM
      1 C         139.5756  139.7491  165.7193 C.3     1  UNL1        0.2308
      2 N         138.5603  138.6590  165.8947 N.2     1  UNL1       -0.0614
      3 C         138.0796  138.6975  167.3151 C.2     1  UNL1        0.3157
      4 N         137.0597  137.7827  167.9258 N.pl3   1  UNL1       -0.2464
      5 C         138.7978  139.8114  168.0175 C.ar    1  UNL1        0.1094
      6 C         138.7293  140.3178  169.4277 C.ar    1  UNL1        0.1470
      7 F         137.8046  139.6679  170.4140 F       1  UNL1       -0.2039
      8 C         139.5854  141.4742  169.8517 C.ar    1  UNL1        0.0299
      9 C         140.5100  142.1241  168.8655 C.ar    1  UNL1        0.0021
     10 C         140.5785  141.6177  167.4553 C.ar    1  UNL1        0.0008
     11 C         139.7224  140.4613  167.0313 C.ar    1  UNL1        0.0390
     12 H         136.6415  137.0777  167.3805 H       1  UNL1        0.2884
     13 H         136.8084  137.8873  168.8719 H       1  UNL1        0.2884
     14 C         137.3129  138.9481  161.1108 C.3     1  UNL1        0.0521
     15 C         138.5127  138.8421  162.0048 C.ar    1  UNL1        0.0588
     16 C         138.4443  139.3486  163.4150 C.ar    1  UNL1        0.0151
     17 C         139.6441  139.2426  164.3090 C.ar    1  UNL1        0.0320
     18 C         140.9123  138.6301  163.7928 C.ar    1  UNL1        0.0151
     19 C         140.9807  138.1237  162.3826 C.ar    1  UNL1        0.0588
     20 C         142.2489  137.5112  161.8663 C.3     1  UNL1        0.0521
     21 N         139.7809  138.2297  161.4886 N.ar    1  UNL1       -0.2540
     22 C         140.6052  140.7333  165.2491 C.ar    1  UNL1        0.0297
     23 C         142.0143  140.6444  165.7558 C.ar    1  UNL1        0.0004
     24 C         143.0439  141.6287  165.2855 C.ar    1  UNL1       -0.0002
     25 C         142.6645  142.7018  164.3086 C.ar    1  UNL1        0.0001
     26 C         141.2555  142.7908  163.8019 C.ar    1  UNL1        0.0028
     27 C         140.2258  141.8065  164.2721 C.ar    1  UNL1        0.0005
     28 C         140.8761  143.8639  162.8250 C.ar    1  UNL1        0.0384
     29 C         139.5822  144.6047  162.9897 C.ar    1  UNL1        0.1022
     30 N         139.2027  145.6779  162.0128 N.ar    1  UNL1       -0.2224
     31 C         140.1171  146.0102  160.8711 C.ar    1  UNL1        0.1989
     32 N         141.4110  145.2693  160.7064 N.ar    1  UNL1       -0.2224
     33 C         141.7905  144.1962  161.6832 C.ar    1  UNL1        0.1022
@<TRIPOS>BOND
     1    14    15    1
     2    15    16   ar
     3    16    17   ar
     4    17     1    1
     5     1    22    1
     6    22    23   ar
     7    23    24   ar
     8    24    25   ar
     9    25    26   ar
    10    26    28    1
    11    28    29   ar
    12    29    30   ar
    13    30    31   ar
    14    31    32   ar
    15    32    33   ar
    16    26    27   ar
    17     1     2    1
    18     2     3    2
    19     3     4    1
    20     3     5    1
    21     5     6   ar
    22     6     7    1
    23     6     8   ar
    24     8     9   ar
    25     9    10   ar
    26    10    11   ar
    27    17    18   ar
    28    18    19   ar
    29    19    20    1
    30    19    21   ar
    31    21    15   ar
    32    11     1    1
    33    27    22   ar
    34    11     5   ar
    35    33    28   ar
    36     4    12    1
    37     4    13    1
@<TRIPOS>MOLECULE
*****
 33 37 0 0 0
SMALL
GASTEIGER

@<TRIPOS>ATOM
      1 C         139.5971  139.7534  165.6842 C.3     1  UNL1        0.2308
      2 N         138.5793  138.6665  165.8651 N.2     1  UNL1       -0.0614
      3 C         138.1053  138.7075  167.2876 C.2     1  UNL1        0.3157
      4 N         137.0855  137.7962  167.9037 N.pl3   1  UNL1       -0.2464
      5 C         138.8301  139.8197  167.9859 C.ar    1  UNL1        0.1094
      6 C         138.7697  140.3273  169.3961 C.ar    1  UNL1        0.1470
      7 F         137.8477  139.6809  170.3871 F       1  UNL1       -0.2039
      8 C         139.6312  141.4814  169.8152 C.ar    1  UNL1        0.0299
      9 C         140.5532  142.1279  168.8242 C.ar    1  UNL1        0.0021
     10 C         140.6136  141.6203  167.4141 C.ar    1  UNL1        0.0008
     11 C         139.7521  140.4662  166.9949 C.ar    1  UNL1        0.0390
     12 H         136.6628  137.0920  167.3609 H       1  UNL1        0.2884
     13 H         136.8390  137.9022  168.8510 H       1  UNL1        0.2884
     14 C         142.2581  137.5412  161.8080 C.3     1  UNL1        0.0521
     15 C         140.9880  138.1396  162.3359 C.ar    1  UNL1        0.0588
     16 C         140.9276  138.6473  163.7460 C.ar    1  UNL1        0.0151
     17 C         139.6574  139.2457  164.2739 C.ar    1  UNL1        0.0320
     18 C         138.4478  139.3365  163.3917 C.ar    1  UNL1        0.0151
     19 C         138.5082  138.8288  161.9816 C.ar    1  UNL1        0.0588
     20 C         137.2985  138.9195  161.0993 C.3     1  UNL1        0.0521
     21 N         139.7783  138.2304  161.4537 N.ar    1  UNL1       -0.2540
     22 C         140.6274  140.7342  165.2085 C.ar    1  UNL1        0.0297
     23 C         142.0384  140.6419  165.7092 C.ar    1  UNL1        0.0004
     24 C         143.0688  141.6228  165.2334 C.ar    1  UNL1       -0.0002
     25 C         142.6882  142.6959  164.2570 C.ar    1  UNL1        0.0001
     26 C         141.2772  142.7883  163.7563 C.ar    1  UNL1        0.0028
     27 C         140.2469  141.8075  164.2320 C.ar    1  UNL1        0.0005
     28 C         140.8967  143.8615  162.7798 C.ar    1  UNL1        0.0384
     29 C         139.6227  144.6303  162.9693 C.ar    1  UNL1        0.1022
     30 N         139.2420  145.7036  161.9930 N.ar    1  UNL1       -0.2224
     31 C         140.1354  146.0079  160.8270 C.ar    1  UNL1        0.1989
     32 N         141.4094  145.2390  160.6376 N.ar    1  UNL1       -0.2224
     33 C         141.7900  144.1658  161.6139 C.ar    1  UNL1        0.1022
@<TRIPOS>BOND
     1    14    15    1
     2    15    16   ar
     3    16    17   ar
     4    17     1    1
     5     1    22    1
     6    22    23   ar
     7    23    24   ar
     8    24    25   ar
     9    25    26   ar
    10    26    28    1
    11    28    29   ar
    12    29    30   ar
    13    30    31   ar
    14    31    32   ar
    15    32    33   ar
    16    26    27   ar
    17     1     2    1
    18     2     3    2
    19     3     4    1
    20     3     5    1
    21     5     6   ar
    22     6     7    1
    23     6     8   ar
    24     8     9   ar
    25     9    10   ar
    26    10    11   ar
    27    17    18   ar
    28    18    19   ar
    29    19    20    1
    30    19    21   ar
    31    21    15   ar
    32    11     1    1
    33    27    22   ar
    34    11     5   ar
    35    33    28   ar
    36     4    12    1
    37     4    13    1
@<TRIPOS>MOLECULE
*****
 33 37 0 0 0
SMALL
GASTEIGER

@<TRIPOS>ATOM
      1 C         141.6842  141.5886  162.9189 C.3     1  UNL1        0.2308
      2 N         142.2749  142.7839  162.2318 N.2     1  UNL1       -0.0614
      3 C         143.7619  142.7416  162.4249 C.2     1  UNL1        0.3157
      4 N         144.7476  143.7446  161.9031 N.pl3   1  UNL1       -0.2464
      5 C         144.0900  141.5201  163.2313 C.ar    1  UNL1        0.1094
      6 C         145.3922  140.9647  163.7270 C.ar    1  UNL1        0.1470
      7 F         146.6763  141.6773  163.4217 F       1  UNL1       -0.2039
      8 C         145.4103  139.6966  164.5280 C.ar    1  UNL1        0.0299
      9 C         144.1261  138.9840  164.8334 C.ar    1  UNL1        0.0021
     10 C         142.8240  139.5395  164.3377 C.ar    1  UNL1        0.0008
     11 C         142.8059  140.8075  163.5366 C.ar    1  UNL1        0.0390
     12 H         144.4335  144.5177  161.3808 H       1  UNL1        0.2884
     13 H         145.7087  143.6298  162.0830 H       1  UNL1        0.2884
     14 C         137.2384  144.1228  163.8205 C.3     1  UNL1        0.0521
     15 C         138.1591  143.4112  162.8740 C.ar    1  UNL1        0.0588
     16 C         139.4612  142.8557  163.3697 C.ar    1  UNL1        0.0151
     17 C         140.3819  142.1441  162.4231 C.ar    1  UNL1        0.0320
     18 C         140.0005  141.9879  160.9809 C.ar    1  UNL1        0.0151
     19 C         138.6983  142.5434  160.4852 C.ar    1  UNL1        0.0588
     20 C         138.3168  142.3873  159.0429 C.3     1  UNL1        0.0521
     21 N         137.7776  143.2550  161.4317 N.ar    1  UNL1       -0.2540
     22 C         140.8211  140.5094  163.5024 C.ar    1  UNL1        0.0297
     23 C         140.3898  139.3518  162.6514 C.ar    1  UNL1        0.0004
     24 C         139.5267  138.2725  163.2350 C.ar    1  UNL1       -0.0002
     25 C         139.0949  138.3509  164.6693 C.ar    1  UNL1        0.0001
     26 C         139.5262  139.5085  165.5203 C.ar    1  UNL1        0.0028
     27 C         140.3893  140.5877  164.9368 C.ar    1  UNL1        0.0005
     28 C         139.0945  139.5869  166.9546 C.ar    1  UNL1        0.0384
     29 C         137.9044  138.8034  167.4235 C.ar    1  UNL1        0.1022
     30 N         137.4726  138.8817  168.8579 N.ar    1  UNL1       -0.2224
     31 C         138.2308  139.7436  169.8233 C.ar    1  UNL1        0.1989
     32 N         139.4209  140.5272  169.3544 N.ar    1  UNL1       -0.2224
     33 C         139.8527  140.4489  167.9201 C.ar    1  UNL1        0.1022
@<TRIPOS>BOND
     1    14    15    1
     2    15    16   ar
     3    16    17   ar
     4    17     1    1
     5     1    22    1
     6    22    23   ar
     7    23    24   ar
     8    24    25   ar
     9    25    26   ar
    10    26    28    1
    11    28    29   ar
    12    29    30   ar
    13    30    31   ar
    14    31    32   ar
    15    32    33   ar
    16    26    27   ar
    17     1     2    1
    18     2     3    2
    19     3     4    1
    20     3     5    1
    21     5     6   ar
    22     6     7    1
    23     6     8   ar
    24     8     9   ar
    25     9    10   ar
    26    10    11   ar
    27    17    18   ar
    28    18    19   ar
    29    19    20    1
    30    19    21   ar
    31    21    15   ar
    32    11     1    1
    33    27    22   ar
    34    11     5   ar
    35    33    28   ar
    36     4    12    1
    37     4    13    1
@<TRIPOS>MOLECULE
*****
 33 37 0 0 0
SMALL
GASTEIGER

@<TRIPOS>ATOM
      1 C         141.0941  140.9490  165.7242 C.3     1  UNL1        0.2308
      2 N         141.3719  141.8123  166.9190 N.2     1  UNL1       -0.0614
      3 C         140.4265  141.4096  168.0117 C.2     1  UNL1        0.3157
      4 N         140.3556  142.0131  169.3831 N.pl3   1  UNL1       -0.2464
      5 C         139.5643  140.2975  167.4922 C.ar    1  UNL1        0.1094
      6 C         138.4569  139.5072  168.1238 C.ar    1  UNL1        0.1470
      7 F         138.0442  139.7919  169.5376 F       1  UNL1       -0.2039
      8 C         137.7620  138.4323  167.3417 C.ar    1  UNL1        0.0299
      9 C         138.1747  138.1477  165.9280 C.ar    1  UNL1        0.0021
     10 C         139.2821  138.9379  165.2963 C.ar    1  UNL1        0.0008
     11 C         139.9769  140.0128  166.0784 C.ar    1  UNL1        0.0390
     12 H         140.9673  142.7433  169.6318 H       1  UNL1        0.2884
     13 H         139.6973  141.6790  170.0345 H       1  UNL1        0.2884
     14 C         145.9750  141.2455  163.9667 C.3     1  UNL1        0.0521
     15 C         144.6421  141.8875  164.2138 C.ar    1  UNL1        0.0588
     16 C         143.5346  141.0973  164.8454 C.ar    1  UNL1        0.0151
     17 C         142.2016  141.7393  165.0926 C.ar    1  UNL1        0.0320
     18 C         141.9762  143.1715  164.7081 C.ar    1  UNL1        0.0151
     19 C         143.0837  143.9618  164.0765 C.ar    1  UNL1        0.0588
     20 C         142.8582  145.3941  163.6920 C.3     1  UNL1        0.0521
     21 N         144.4166  143.3198  163.8294 N.ar    1  UNL1       -0.2540
     22 C         141.0478  140.2509  164.3974 C.ar    1  UNL1        0.0297
     23 C         141.7402  138.9323  164.2191 C.ar    1  UNL1        0.0004
     24 C         141.6939  138.2342  162.8921 C.ar    1  UNL1       -0.0002
     25 C         140.9552  138.8548  161.7436 C.ar    1  UNL1        0.0001
     26 C         140.2628  140.1734  161.9219 C.ar    1  UNL1        0.0028
     27 C         140.3091  140.8715  163.2487 C.ar    1  UNL1        0.0005
     28 C         139.5241  140.7940  160.7733 C.ar    1  UNL1        0.0384
     29 C         139.0945  139.9468  159.6124 C.ar    1  UNL1        0.1022
     30 N         138.3558  140.5673  158.4638 N.ar    1  UNL1       -0.2224
     31 C         138.0466  142.0350  158.4762 C.ar    1  UNL1        0.1989
     32 N         138.4762  142.8823  159.6372 N.ar    1  UNL1       -0.2224
     33 C         139.2149  142.2618  160.7857 C.ar    1  UNL1        0.1022
@<TRIPOS>BOND
     1    14    15    1
     2    15    16   ar
     3    16    17   ar
     4    17     1    1
     5     1    22    1
     6    22    23   ar
     7    23    24   ar
     8    24    25   ar
     9    25    26   ar
    10    26    28    1
    11    28    29   ar
    12    29    30   ar
    13    30    31   ar
    14    31    32   ar
    15    32    33   ar
    16    26    27   ar
    17     1     2    1
    18     2     3    2
    19     3     4    1
    20     3     5    1
    21     5     6   ar
    22     6     7    1
    23     6     8   ar
    24     8     9   ar
    25     9    10   ar
    26    10    11   ar
    27    17    18   ar
    28    18    19   ar
    29    19    20    1
    30    19    21   ar
    31    21    15   ar
    32    11     1    1
    33    27    22   ar
    34    11     5   ar
    35    33    28   ar
    36     4    12    1
    37     4    13    1
@<TRIPOS>MOLECULE
*****
 33 37 0 0 0
SMALL
GASTEIGER

@<TRIPOS>ATOM
      1 C         140.3030  142.0405  164.8764 C.3     1  UNL1        0.2308
      2 N         140.9932  142.8302  165.9488 N.2     1  UNL1       -0.0614
      3 C         140.6800  142.1913  167.2692 C.2     1  UNL1        0.3157
      4 N         141.1654  142.6554  168.6105 N.pl3   1  UNL1       -0.2464
      5 C         139.7962  141.0067  167.0130 C.ar    1  UNL1        0.1094
      6 C         139.1736  140.0009  167.9352 C.ar    1  UNL1        0.1470
      7 F         139.4066  140.0940  169.4141 F       1  UNL1       -0.2039
      8 C         138.3179  138.9018  167.3786 C.ar    1  UNL1        0.0299
      9 C         138.0848  138.8087  165.8998 C.ar    1  UNL1        0.0021
     10 C         138.7075  139.8145  164.9775 C.ar    1  UNL1        0.0008
     11 C         139.5632  140.9135  165.5342 C.ar    1  UNL1        0.0390
     12 H         141.7452  143.4483  168.6768 H       1  UNL1        0.2884
     13 H         140.9042  142.1671  169.4245 H       1  UNL1        0.2884
     14 C         144.4686  143.8729  162.3685 C.3     1  UNL1        0.0521
     15 C         143.0085  143.9626  162.7003 C.ar    1  UNL1        0.0588
     16 C         142.3858  142.9568  163.6225 C.ar    1  UNL1        0.0151
     17 C         140.9257  143.0464  163.9542 C.ar    1  UNL1        0.0320
     18 C         140.0883  144.1419  163.3638 C.ar    1  UNL1        0.0151
     19 C         140.7110  145.1477  162.4416 C.ar    1  UNL1        0.0588
     20 C         139.8736  146.2433  161.8511 C.3     1  UNL1        0.0521
     21 N         142.1711  145.0581  162.1098 N.ar    1  UNL1       -0.2540
     22 C         139.7429  141.4611  163.6113 C.ar    1  UNL1        0.0297
     23 C         138.3135  141.7190  163.2368 C.ar    1  UNL1        0.0004
     24 C         137.7534  141.1395  161.9716 C.ar    1  UNL1       -0.0002
     25 C         138.6227  140.3022  161.0810 C.ar    1  UNL1        0.0001
     26 C         140.0522  140.0443  161.4555 C.ar    1  UNL1        0.0028
     27 C         140.6122  140.6237  162.7207 C.ar    1  UNL1        0.0005
     28 C         140.9215  139.2070  160.5650 C.ar    1  UNL1        0.0384
     29 C         142.0379  138.3965  161.1537 C.ar    1  UNL1        0.1022
     30 N         142.9074  137.5591  160.2632 N.ar    1  UNL1       -0.2224
     31 C         142.6603  137.5324  158.7839 C.ar    1  UNL1        0.1989
     32 N         141.5438  138.3430  158.1952 N.ar    1  UNL1       -0.2224
     33 C         140.6745  139.1802  159.0857 C.ar    1  UNL1        0.1022
@<TRIPOS>BOND
     1    14    15    1
     2    15    16   ar
     3    16    17   ar
     4    17     1    1
     5     1    22    1
     6    22    23   ar
     7    23    24   ar
     8    24    25   ar
     9    25    26   ar
    10    26    28    1
    11    28    29   ar
    12    29    30   ar
    13    30    31   ar
    14    31    32   ar
    15    32    33   ar
    16    26    27   ar
    17     1     2    1
    18     2     3    2
    19     3     4    1
    20     3     5    1
    21     5     6   ar
    22     6     7    1
    23     6     8   ar
    24     8     9   ar
    25     9    10   ar
    26    10    11   ar
    27    17    18   ar
    28    18    19   ar
    29    19    20    1
    30    19    21   ar
    31    21    15   ar
    32    11     1    1
    33    27    22   ar
    34    11     5   ar
    35    33    28   ar
    36     4    12    1
    37     4    13    1
@<TRIPOS>MOLECULE
*****
 33 37 0 0 0
SMALL
GASTEIGER

@<TRIPOS>ATOM
      1 C         140.2301  140.0067  167.2759 C.3     1  UNL1        0.2308
      2 N         138.8426  139.9304  167.8408 N.2     1  UNL1       -0.0614
      3 C         138.9456  140.0099  169.3352 C.2     1  UNL1        0.3157
      4 N         137.7988  139.9709  170.3013 N.pl3   1  UNL1       -0.2464
      5 C         140.3967  140.1353  169.6938 C.ar    1  UNL1        0.1094
      6 C         141.0977  140.2511  171.0149 C.ar    1  UNL1        0.1470
      7 F         140.3038  140.2530  172.2876 F       1  UNL1       -0.2039
      8 C         142.5925  140.3648  171.0632 C.ar    1  UNL1        0.0299
      9 C         143.3864  140.3628  169.7905 C.ar    1  UNL1        0.0021
     10 C         142.6854  140.2471  168.4695 C.ar    1  UNL1        0.0008
     11 C         141.1905  140.1333  168.4211 C.ar    1  UNL1        0.0390
     12 H         136.8765  139.8861  169.9674 H       1  UNL1        0.2884
     13 H         137.9684  140.0300  171.2693 H       1  UNL1        0.2884
     14 C         138.8719  137.1768  163.1351 C.3     1  UNL1        0.0521
     15 C         138.8499  138.4760  163.8845 C.ar    1  UNL1        0.0588
     16 C         139.5509  138.5918  165.2055 C.ar    1  UNL1        0.0151
     17 C         139.5290  139.8910  165.9549 C.ar    1  UNL1        0.0320
     18 C         138.8060  141.0744  165.3833 C.ar    1  UNL1        0.0151
     19 C         138.1050  140.9586  164.0622 C.ar    1  UNL1        0.0588
     20 C         137.3820  142.1420  163.4906 C.3     1  UNL1        0.0521
     21 N         138.1269  139.6594  163.3129 N.ar    1  UNL1       -0.2540
     22 C         141.4710  140.0588  166.4349 C.ar    1  UNL1        0.0297
     23 C         142.3401  138.8432  166.3043 C.ar    1  UNL1        0.0004
     24 C         143.5811  138.8954  165.4632 C.ar    1  UNL1       -0.0002
     25 C         143.9528  140.1630  164.7526 C.ar    1  UNL1        0.0001
     26 C         143.0836  141.3786  164.8832 C.ar    1  UNL1        0.0028
     27 C         141.8428  141.3265  165.7243 C.ar    1  UNL1        0.0005
     28 C         143.4554  142.6462  164.1726 C.ar    1  UNL1        0.0384
     29 C         143.2625  143.9702  164.8506 C.ar    1  UNL1        0.1022
     30 N         143.6342  145.2380  164.1402 N.ar    1  UNL1       -0.2224
     31 C         144.1988  145.1816  162.7516 C.ar    1  UNL1        0.1989
     32 N         144.3917  143.8574  162.0736 N.ar    1  UNL1       -0.2224
     33 C         144.0200  142.5898  162.7841 C.ar    1  UNL1        0.1022
@<TRIPOS>BOND
     1    14    15    1
     2    15    16   ar
     3    16    17   ar
     4    17     1    1
     5     1    22    1
     6    22    23   ar
     7    23    24   ar
     8    24    25   ar
     9    25    26   ar
    10    26    28    1
    11    28    29   ar
    12    29    30   ar
    13    30    31   ar
    14    31    32   ar
    15    32    33   ar
    16    26    27   ar
    17     1     2    1
    18     2     3    2
    19     3     4    1
    20     3     5    1
    21     5     6   ar
    22     6     7    1
    23     6     8   ar
    24     8     9   ar
    25     9    10   ar
    26    10    11   ar
    27    17    18   ar
    28    18    19   ar
    29    19    20    1
    30    19    21   ar
    31    21    15   ar
    32    11     1    1
    33    27    22   ar
    34    11     5   ar
    35    33    28   ar
    36     4    12    1
    37     4    13    1
@<TRIPOS>MOLECULE
*****
 33 37 0 0 0
SMALL
GASTEIGER

@<TRIPOS>ATOM
      1 C         142.5626  141.3936  163.0859 C.3     1  UNL1        0.2308
      2 N         142.1795  142.0656  161.8008 N.2     1  UNL1       -0.0614
      3 C         142.6197  143.4975  161.8774 C.2     1  UNL1        0.3157
      4 N         142.4369  144.5345  160.8091 N.pl3   1  UNL1       -0.2464
      5 C         143.2749  143.7104  163.2098 C.ar    1  UNL1        0.1094
      6 C         143.8991  144.9204  163.8394 C.ar    1  UNL1        0.1470
      7 F         143.9344  146.2207  163.0925 F       1  UNL1       -0.2039
      8 C         144.4880  144.8300  165.2160 C.ar    1  UNL1        0.0299
      9 C         144.4527  143.5297  165.9630 C.ar    1  UNL1        0.0021
     10 C         143.8285  142.3197  165.3333 C.ar    1  UNL1        0.0008
     11 C         143.2396  142.4101  163.9568 C.ar    1  UNL1        0.0390
     12 H         141.9921  144.2969  159.9635 H       1  UNL1        0.2884
     13 H         142.7617  145.4525  160.9534 H       1  UNL1        0.2884
     14 C         142.5658  137.7317  159.3994 C.3     1  UNL1        0.0521
     15 C         141.9400  138.3527  160.6130 C.ar    1  UNL1        0.0588
     16 C         142.5642  139.5626  161.2427 C.ar    1  UNL1        0.0151
     17 C         141.9384  140.1836  162.4563 C.ar    1  UNL1        0.0320
     18 C         140.6885  139.5948  163.0401 C.ar    1  UNL1        0.0151
     19 C         140.0644  138.3849  162.4104 C.ar    1  UNL1        0.0588
     20 C         138.8144  137.7959  162.9943 C.3     1  UNL1        0.0521
     21 N         140.6901  137.7639  161.1969 N.ar    1  UNL1       -0.2540
     22 C         142.8152  140.4686  164.2394 C.ar    1  UNL1        0.0297
     23 C         143.8807  139.4176  164.1386 C.ar    1  UNL1        0.0004
     24 C         144.1333  138.4926  165.2922 C.ar    1  UNL1       -0.0002
     25 C         143.3205  138.6186  166.5465 C.ar    1  UNL1        0.0001
     26 C         142.2550  139.6696  166.6474 C.ar    1  UNL1        0.0028
     27 C         142.0024  140.5946  165.4939 C.ar    1  UNL1        0.0005
     28 C         141.4421  139.7957  167.9017 C.ar    1  UNL1        0.0384
     29 C         139.9468  139.8809  167.8209 C.ar    1  UNL1        0.1022
     30 N         139.1338  140.0069  169.0752 N.ar    1  UNL1       -0.2224
     31 C         139.8163  140.0478  170.4103 C.ar    1  UNL1        0.1989
     32 N         141.3118  139.9626  170.4911 N.ar    1  UNL1       -0.2224
     33 C         142.1247  139.8365  169.2368 C.ar    1  UNL1        0.1022
@<TRIPOS>BOND
     1    14    15    1
     2    15    16   ar
     3    16    17   ar
     4    17     1    1
     5     1    22    1
     6    22    23   ar
     7    23    24   ar
     8    24    25   ar
     9    25    26   ar
    10    26    28    1
    11    28    29   ar
    12    29    30   ar
    13    30    31   ar
    14    31    32   ar
    15    32    33   ar
    16    26    27   ar
    17     1     2    1
    18     2     3    2
    19     3     4    1
    20     3     5    1
    21     5     6   ar
    22     6     7    1
    23     6     8   ar
    24     8     9   ar
    25     9    10   ar
    26    10    11   ar
    27    17    18   ar
    28    18    19   ar
    29    19    20    1
    30    19    21   ar
    31    21    15   ar
    32    11     1    1
    33    27    22   ar
    34    11     5   ar
    35    33    28   ar
    36     4    12    1
    37     4    13    1
