@<TRIPOS>MOLECULE
*****
 34 37 0 0 0
SMALL
GASTEIGER

@<TRIPOS>ATOM
      1 C         139.2491  138.7295  162.9223 C.ar    1  UNL1        0.0784
      2 C         139.3411  137.6039  163.9094 C.ar    1  UNL1        0.0171
      3 C         139.1871  137.8781  165.3761 C.ar    1  UNL1        0.0061
      4 C         138.9412  139.2779  165.8556 C.ar    1  UNL1        0.0575
      5 C         138.8492  140.4036  164.8684 C.ar    1  UNL1        0.0356
      6 C         139.0032  140.1293  163.4018 C.ar    1  UNL1        0.1536
      7 F         138.9112  141.2550  162.4146 F       1  UNL1       -0.2029
      8 C         138.7872  139.5521  167.3223 C.ar    1  UNL1        0.2513
      9 N         137.7886  138.9101  168.2392 N.ar    1  UNL1       -0.1058
     10 N         137.9890  139.4776  169.6131 N.ar    1  UNL1       -0.0923
     11 C         139.1114  140.4705  169.5454 C.ar    1  UNL1        0.3086
     12 O         139.6047  140.5165  168.1295 O.2     1  UNL1       -0.4048
     13 N         139.6465  141.2759  170.6921 N.pl3   1  UNL1       -0.2871
     14 H         139.0263  141.6857  171.3375 H       1  UNL1        0.1512
     15 C         141.1266  141.4568  170.8554 C.3     1  UNL1        0.0925
     16 C         141.9005  142.2535  169.8473 C.3     1  UNL1        0.0386
     17 C         143.0708  141.6353  169.1413 C.3     1  UNL1        0.0738
     18 N         142.8832  140.9940  167.7985 N.3     1  UNL1       -0.2726
     19 C         142.8499  139.4991  167.6793 C.3     1  UNL1        0.0721
     20 C         142.6623  138.8577  166.3364 C.3     1  UNL1        0.0174
     21 C         142.5079  139.7112  165.1126 C.3     1  UNL1        0.0029
     22 C         142.5412  141.2061  165.2318 C.3     1  UNL1        0.0174
     23 C         142.7288  141.8475  166.5747 C.3     1  UNL1        0.0721
     24 O         141.8319  139.3739  161.5388 O.2     1  UNL1       -0.2697
     25 C         140.6945  138.7775  160.7639 C.2     1  UNL1        0.2517
     26 N         139.4031  138.4553  161.4556 N.am    1  UNL1       -0.2786
     27 H         138.6566  138.0638  160.9470 H       1  UNL1        0.1552
     28 C         140.8485  138.5033  159.2972 C.ar    1  UNL1        0.0811
     29 C         139.6914  138.7214  158.3679 C.ar    1  UNL1        0.0068
     30 C         139.8454  138.4472  156.9013 C.ar    1  UNL1        0.0003
     31 C         141.1565  137.9549  156.3639 C.ar    1  UNL1        0.0023
     32 C         142.3136  137.7368  157.2932 C.ar    1  UNL1        0.0298
     33 C         142.1595  138.0110  158.7598 C.ar    1  UNL1        0.1445
     34 F         143.3166  137.7929  159.6892 F       1  UNL1       -0.2040
@<TRIPOS>BOND
     1    24    25    2
     2    25    26   am
     3    26     1    1
     4     1     2   ar
     5     2     3   ar
     6     3     4   ar
     7     4     8    1
     8     8     9   ar
     9     9    10   ar
    10    10    11   ar
    11    11    13    1
    12    13    15    1
    13    15    16    1
    14    16    17    1
    15    17    18    1
    16    18    19    1
    17    19    20    1
    18    20    21    1
    19    21    22    1
    20    22    23    1
    21    11    12   ar
    22     4     5   ar
    23     5     6   ar
    24     6     7    1
    25    25    28    1
    26    28    29   ar
    27    29    30   ar
    28    30    31   ar
    29    31    32   ar
    30    32    33   ar
    31    33    34    1
    32     6     1   ar
    33    33    28   ar
    34    12     8   ar
    35    23    18    1
    36    26    27    1
    37    13    14    1
@<TRIPOS>MOLECULE
*****
 34 37 0 0 0
SMALL
GASTEIGER

@<TRIPOS>ATOM
      1 C         142.3410  138.3702  163.0343 C.ar    1  UNL1        0.0784
      2 C         143.7232  138.6448  162.5207 C.ar    1  UNL1        0.0171
      3 C         144.0000  138.5922  161.0474 C.ar    1  UNL1        0.0061
      4 C         142.8945  138.2652  160.0878 C.ar    1  UNL1        0.0575
      5 C         141.5122  137.9906  160.6014 C.ar    1  UNL1        0.0356
      6 C         141.2355  138.0432  162.0747 C.ar    1  UNL1        0.1536
      7 F         139.8531  137.7686  162.5885 F       1  UNL1       -0.2029
      8 C         143.1713  138.2126  158.6144 C.ar    1  UNL1        0.2513
      9 N         143.5786  139.3704  157.7520 N.ar    1  UNL1       -0.1058
     10 N         143.7485  138.8665  156.3495 N.ar    1  UNL1       -0.0923
     11 C         143.4462  137.3972  156.3451 C.ar    1  UNL1        0.3086
     12 O         143.0895  136.9932  157.7449 O.2     1  UNL1       -0.4048
     13 N         143.4925  136.4911  155.1505 N.pl3   1  UNL1       -0.2871
     14 H         144.3470  136.0919  154.8683 H       1  UNL1        0.1512
     15 C         142.2368  136.1933  154.3860 C.3     1  UNL1        0.0925
     16 C         141.8038  134.7721  154.1793 C.3     1  UNL1        0.0386
     17 C         141.6456  133.8573  155.3575 C.3     1  UNL1        0.0738
     18 N         142.8542  133.2353  155.9917 N.3     1  UNL1       -0.2726
     19 C         143.3293  133.7154  157.3311 C.3     1  UNL1        0.0721
     20 C         144.5379  133.0934  157.9653 C.3     1  UNL1        0.0174
     21 C         145.2715  131.9913  157.2602 C.3     1  UNL1        0.0029
     22 C         144.7964  131.5112  155.9209 C.3     1  UNL1        0.0174
     23 C         143.5878  132.1332  155.2866 C.3     1  UNL1        0.0721
     24 O         141.6477  140.9816  164.3382 O.2     1  UNL1       -0.2697
     25 C         141.7175  139.7285  165.1596 C.2     1  UNL1        0.2517
     26 N         142.0641  138.4228  164.5077 N.am    1  UNL1       -0.2786
     27 H         142.1100  137.6003  165.0468 H       1  UNL1        0.1552
     28 C         141.4407  139.7810  166.6329 C.ar    1  UNL1        0.0811
     29 C         142.5301  139.4600  167.6127 C.ar    1  UNL1        0.0068
     30 C         142.2533  139.5125  169.0859 C.ar    1  UNL1        0.0003
     31 C         140.8869  139.8861  169.5795 C.ar    1  UNL1        0.0023
     32 C         139.7974  140.2071  168.5997 C.ar    1  UNL1        0.0298
     33 C         140.0743  140.1546  167.1265 C.ar    1  UNL1        0.1445
     34 F         138.9848  140.4756  166.1466 F       1  UNL1       -0.2040
@<TRIPOS>BOND
     1    24    25    2
     2    25    26   am
     3    26     1    1
     4     1     2   ar
     5     2     3   ar
     6     3     4   ar
     7     4     8    1
     8     8     9   ar
     9     9    10   ar
    10    10    11   ar
    11    11    13    1
    12    13    15    1
    13    15    16    1
    14    16    17    1
    15    17    18    1
    16    18    19    1
    17    19    20    1
    18    20    21    1
    19    21    22    1
    20    22    23    1
    21    11    12   ar
    22     4     5   ar
    23     5     6   ar
    24     6     7    1
    25    25    28    1
    26    28    29   ar
    27    29    30   ar
    28    30    31   ar
    29    31    32   ar
    30    32    33   ar
    31    33    34    1
    32     6     1   ar
    33    33    28   ar
    34    12     8   ar
    35    23    18    1
    36    26    27    1
    37    13    14    1
@<TRIPOS>MOLECULE
*****
 34 37 0 0 0
SMALL
GASTEIGER

@<TRIPOS>ATOM
      1 C         138.4183  139.3914  162.9524 C.ar    1  UNL1        0.0784
      2 C         138.0920  140.7156  163.5768 C.ar    1  UNL1        0.0171
      3 C         138.2024  140.8918  165.0623 C.ar    1  UNL1        0.0061
      4 C         138.6393  139.7439  165.9233 C.ar    1  UNL1        0.0575
      5 C         138.9657  138.4197  165.2989 C.ar    1  UNL1        0.0356
      6 C         138.8552  138.2435  163.8134 C.ar    1  UNL1        0.1536
      7 F         139.1816  136.9192  163.1889 F       1  UNL1       -0.2029
      8 C         138.7497  139.9202  167.4089 C.ar    1  UNL1        0.2513
      9 N         137.9931  139.1461  168.4473 N.ar    1  UNL1       -0.1058
     10 N         138.4119  139.6489  169.7970 N.ar    1  UNL1       -0.0923
     11 C         139.4274  140.7339  169.5927 C.ar    1  UNL1        0.3086
     12 O         139.6362  140.9016  168.1168 O.2     1  UNL1       -0.4048
     13 N         140.1136  141.5143  170.6745 N.pl3   1  UNL1       -0.2871
     14 H         140.0153  141.2424  171.6156 H       1  UNL1        0.1512
     15 C         140.9497  142.7088  170.3224 C.3     1  UNL1        0.0925
     16 C         142.4256  142.6965  170.5902 C.3     1  UNL1        0.0386
     17 C         143.3921  142.5224  169.4564 C.3     1  UNL1        0.0738
     18 N         143.0556  141.6054  168.3181 N.3     1  UNL1       -0.2726
     19 C         142.8970  140.1339  168.5620 C.3     1  UNL1        0.0721
     20 C         142.5605  139.2169  167.4238 C.3     1  UNL1        0.0174
     21 C         142.3826  139.7714  166.0414 C.3     1  UNL1        0.0029
     22 C         142.5412  141.2428  165.7974 C.3     1  UNL1        0.0174
     23 C         142.8777  142.1599  166.9358 C.3     1  UNL1        0.0721
     24 O         140.6245  140.3504  161.1598 O.2     1  UNL1       -0.2697
     25 C         139.4109  139.6946  160.5706 C.2     1  UNL1        0.2517
     26 N         138.3079  139.2151  161.4668 N.am    1  UNL1       -0.2786
     27 H         137.5114  138.7847  161.0801 H       1  UNL1        0.1552
     28 C         139.3005  139.5183  159.0850 C.ar    1  UNL1        0.0811
     29 C         139.9138  138.3194  158.4244 C.ar    1  UNL1        0.0068
     30 C         139.8033  138.1432  156.9389 C.ar    1  UNL1        0.0003
     31 C         139.0795  139.1658  156.1141 C.ar    1  UNL1        0.0023
     32 C         138.4662  140.3647  156.7747 C.ar    1  UNL1        0.0298
     33 C         138.5767  140.5409  158.2602 C.ar    1  UNL1        0.1445
     34 F         137.9634  141.7398  158.9209 F       1  UNL1       -0.2040
@<TRIPOS>BOND
     1    24    25    2
     2    25    26   am
     3    26     1    1
     4     1     2   ar
     5     2     3   ar
     6     3     4   ar
     7     4     8    1
     8     8     9   ar
     9     9    10   ar
    10    10    11   ar
    11    11    13    1
    12    13    15    1
    13    15    16    1
    14    16    17    1
    15    17    18    1
    16    18    19    1
    17    19    20    1
    18    20    21    1
    19    21    22    1
    20    22    23    1
    21    11    12   ar
    22     4     5   ar
    23     5     6   ar
    24     6     7    1
    25    25    28    1
    26    28    29   ar
    27    29    30   ar
    28    30    31   ar
    29    31    32   ar
    30    32    33   ar
    31    33    34    1
    32     6     1   ar
    33    33    28   ar
    34    12     8   ar
    35    23    18    1
    36    26    27    1
    37    13    14    1
@<TRIPOS>MOLECULE
*****
 34 37 0 0 0
SMALL
GASTEIGER

@<TRIPOS>ATOM
      1 C         143.3400  138.9910  163.9638 C.ar    1  UNL1        0.0784
      2 C         142.2599  138.1620  163.3345 C.ar    1  UNL1        0.0171
      3 C         142.1923  138.0259  161.8422 C.ar    1  UNL1        0.0061
      4 C         143.2048  138.7189  160.9793 C.ar    1  UNL1        0.0575
      5 C         144.2849  139.5479  161.6086 C.ar    1  UNL1        0.0356
      6 C         144.3525  139.6839  163.1009 C.ar    1  UNL1        0.1536
      7 F         145.4326  140.5129  163.7303 F       1  UNL1       -0.2029
      8 C         143.1371  138.5828  159.4870 C.ar    1  UNL1        0.2513
      9 N         143.9600  139.3484  158.4936 N.ar    1  UNL1       -0.1058
     10 N         143.5662  138.8960  157.1188 N.ar    1  UNL1       -0.0923
     11 C         142.4999  137.8508  157.2624 C.ar    1  UNL1        0.3086
     12 O         142.2347  137.6572  158.7260 O.2     1  UNL1       -0.4048
     13 N         141.8185  137.1264  156.1395 N.pl3   1  UNL1       -0.2871
     14 H         140.9929  137.4920  155.7471 H       1  UNL1        0.1512
     15 C         142.3949  135.8449  155.6145 C.3     1  UNL1        0.0925
     16 C         143.7202  135.3564  156.1193 C.3     1  UNL1        0.0386
     17 C         143.7881  134.5282  157.3682 C.3     1  UNL1        0.0738
     18 N         143.8194  133.0316  157.2748 N.3     1  UNL1       -0.2726
     19 C         142.7216  132.3015  156.5592 C.3     1  UNL1        0.0721
     20 C         142.7529  130.8049  156.4658 C.3     1  UNL1        0.0174
     21 C         143.8819  130.0380  157.0880 C.3     1  UNL1        0.0029
     22 C         144.9797  130.7679  157.8036 C.3     1  UNL1        0.0174
     23 C         144.9484  132.2647  157.8970 C.3     1  UNL1        0.0721
     24 O         141.8383  141.1942  165.3388 O.2     1  UNL1       -0.2697
     25 C         142.6568  140.2287  166.1436 C.2     1  UNL1        0.2517
     26 N         143.4076  139.1270  165.4562 N.am    1  UNL1       -0.2786
     27 H         143.9448  138.4933  165.9844 H       1  UNL1        0.1552
     28 C         142.7244  140.3647  167.6359 C.ar    1  UNL1        0.0811
     29 C         142.3387  139.2103  168.5126 C.ar    1  UNL1        0.0068
     30 C         142.4064  139.3464  170.0048 C.ar    1  UNL1        0.0003
     31 C         142.8597  140.6370  170.6204 C.ar    1  UNL1        0.0023
     32 C         143.2454  141.7914  169.7438 C.ar    1  UNL1        0.0298
     33 C         143.1777  141.6553  168.2516 C.ar    1  UNL1        0.1445
     34 F         143.5634  142.8097  167.3749 F       1  UNL1       -0.2040
@<TRIPOS>BOND
     1    24    25    2
     2    25    26   am
     3    26     1    1
     4     1     2   ar
     5     2     3   ar
     6     3     4   ar
     7     4     8    1
     8     8     9   ar
     9     9    10   ar
    10    10    11   ar
    11    11    13    1
    12    13    15    1
    13    15    16    1
    14    16    17    1
    15    17    18    1
    16    18    19    1
    17    19    20    1
    18    20    21    1
    19    21    22    1
    20    22    23    1
    21    11    12   ar
    22     4     5   ar
    23     5     6   ar
    24     6     7    1
    25    25    28    1
    26    28    29   ar
    27    29    30   ar
    28    30    31   ar
    29    31    32   ar
    30    32    33   ar
    31    33    34    1
    32     6     1   ar
    33    33    28   ar
    34    12     8   ar
    35    23    18    1
    36    26    27    1
    37    13    14    1
@<TRIPOS>MOLECULE
*****
 34 37 0 0 0
SMALL
GASTEIGER

@<TRIPOS>ATOM
      1 C         141.3488  138.4102  163.8446 C.ar    1  UNL1        0.0784
      2 C         142.7201  138.4672  163.2394 C.ar    1  UNL1        0.0171
      3 C         142.8859  138.4003  161.7501 C.ar    1  UNL1        0.0061
      4 C         141.6805  138.2763  160.8661 C.ar    1  UNL1        0.0575
      5 C         140.3092  138.2193  161.4713 C.ar    1  UNL1        0.0356
      6 C         140.1434  138.2863  162.9606 C.ar    1  UNL1        0.1536
      7 F         138.7721  138.2293  163.5659 F       1  UNL1       -0.2029
      8 C         141.8463  138.2094  159.3768 C.ar    1  UNL1        0.2513
      9 N         140.7534  138.3589  158.3603 N.ar    1  UNL1       -0.1058
     10 N         141.3658  138.2231  156.9978 N.ar    1  UNL1       -0.0923
     11 C         142.8372  137.9896  157.1721 C.ar    1  UNL1        0.3086
     12 O         143.1342  137.9812  158.6424 O.2     1  UNL1       -0.4048
     13 N         143.8363  137.7983  156.0697 N.pl3   1  UNL1       -0.2871
     14 H         144.2741  138.5796  155.6611 H       1  UNL1        0.1512
     15 C         144.1683  136.4164  155.5900 C.3     1  UNL1        0.0925
     16 C         143.0873  135.5333  155.0407 C.3     1  UNL1        0.0386
     17 C         142.5663  134.3886  155.8582 C.3     1  UNL1        0.0738
     18 N         143.3168  133.0905  155.8949 N.3     1  UNL1       -0.2726
     19 C         144.0833  132.7017  157.1243 C.3     1  UNL1        0.0721
     20 C         144.8337  131.4036  157.1611 C.3     1  UNL1        0.0174
     21 C         144.8178  130.4940  155.9684 C.3     1  UNL1        0.0029
     22 C         144.0514  130.8827  154.7390 C.3     1  UNL1        0.0174
     23 C         143.3009  132.1809  154.7023 C.3     1  UNL1        0.0721
     24 O         140.8029  141.0425  165.1764 O.2     1  UNL1       -0.2697
     25 C         140.9100  139.7933  165.9998 C.2     1  UNL1        0.2517
     26 N         141.1830  138.4772  165.3340 N.am    1  UNL1       -0.2786
     27 H         141.2532  137.6573  165.8745 H       1  UNL1        0.1552
     28 C         140.7441  139.8603  167.4892 C.ar    1  UNL1        0.0811
     29 C         139.4232  140.2556  168.0796 C.ar    1  UNL1        0.0068
     30 C         139.2574  140.3225  169.5689 C.ar    1  UNL1        0.0003
     31 C         140.4125  139.9941  170.4677 C.ar    1  UNL1        0.0023
     32 C         141.7335  139.5988  169.8772 C.ar    1  UNL1        0.0298
     33 C         141.8993  139.5319  168.3879 C.ar    1  UNL1        0.1445
     34 F         143.2203  139.1365  167.7974 F       1  UNL1       -0.2040
@<TRIPOS>BOND
     1    24    25    2
     2    25    26   am
     3    26     1    1
     4     1     2   ar
     5     2     3   ar
     6     3     4   ar
     7     4     8    1
     8     8     9   ar
     9     9    10   ar
    10    10    11   ar
    11    11    13    1
    12    13    15    1
    13    15    16    1
    14    16    17    1
    15    17    18    1
    16    18    19    1
    17    19    20    1
    18    20    21    1
    19    21    22    1
    20    22    23    1
    21    11    12   ar
    22     4     5   ar
    23     5     6   ar
    24     6     7    1
    25    25    28    1
    26    28    29   ar
    27    29    30   ar
    28    30    31   ar
    29    31    32   ar
    30    32    33   ar
    31    33    34    1
    32     6     1   ar
    33    33    28   ar
    34    12     8   ar
    35    23    18    1
    36    26    27    1
    37    13    14    1
@<TRIPOS>MOLECULE
*****
 34 37 0 0 0
SMALL
GASTEIGER

@<TRIPOS>ATOM
      1 C         141.8400  138.5192  163.8940 C.ar    1  UNL1        0.0784
      2 C         140.7463  138.3128  162.8885 C.ar    1  UNL1        0.0171
      3 C         141.0712  138.2716  161.4248 C.ar    1  UNL1        0.0061
      4 C         142.4899  138.4368  160.9664 C.ar    1  UNL1        0.0575
      5 C         143.5836  138.6432  161.9719 C.ar    1  UNL1        0.0356
      6 C         143.2587  138.6844  163.4357 C.ar    1  UNL1        0.1536
      7 F         144.3525  138.8908  164.4412 F       1  UNL1       -0.2029
      8 C         142.8147  138.3956  159.5026 C.ar    1  UNL1        0.2513
      9 N         143.6556  139.3897  158.7577 N.ar    1  UNL1       -0.1058
     10 N         143.7164  138.9616  157.3214 N.ar    1  UNL1       -0.0923
     11 C         142.9130  137.7029  157.1786 C.ar    1  UNL1        0.3086
     12 O         142.3558  137.3531  158.5266 O.2     1  UNL1       -0.4048
     13 N         142.7037  136.9297  155.9103 N.pl3   1  UNL1       -0.2871
     14 H         142.7991  137.3781  155.0390 H       1  UNL1        0.1512
     15 C         142.3489  135.4735  155.9696 C.3     1  UNL1        0.0925
     16 C         142.9481  134.5149  154.9837 C.3     1  UNL1        0.0386
     17 C         142.6246  133.0526  155.0678 C.3     1  UNL1        0.0738
     18 N         143.3148  132.1889  156.0814 N.3     1  UNL1       -0.2726
     19 C         144.5329  132.6966  156.7945 C.3     1  UNL1        0.0721
     20 C         145.2232  131.8328  157.8081 C.3     1  UNL1        0.0174
     21 C         144.6954  130.4613  158.1087 C.3     1  UNL1        0.0029
     22 C         143.4773  129.9536  157.3956 C.3     1  UNL1        0.0174
     23 C         142.7870  130.8174  156.3819 C.3     1  UNL1        0.0721
     24 O         141.3918  141.1536  165.2575 O.2     1  UNL1       -0.2697
     25 C         141.2910  139.8776  166.0396 C.2     1  UNL1        0.2517
     26 N         141.5152  138.5604  165.3579 N.am    1  UNL1       -0.2786
     27 H         141.4490  137.7229  165.8712 H       1  UNL1        0.1552
     28 C         140.9661  139.9188  167.5035 C.ar    1  UNL1        0.0811
     29 C         139.6253  140.4117  167.9605 C.ar    1  UNL1        0.0068
     30 C         139.3004  140.4529  169.4243 C.ar    1  UNL1        0.0003
     31 C         140.3165  140.0012  170.4310 C.ar    1  UNL1        0.0023
     32 C         141.6574  139.5082  169.9740 C.ar    1  UNL1        0.0298
     33 C         141.9822  139.4670  168.5102 C.ar    1  UNL1        0.1445
     34 F         143.3232  138.9741  168.0530 F       1  UNL1       -0.2040
@<TRIPOS>BOND
     1    24    25    2
     2    25    26   am
     3    26     1    1
     4     1     2   ar
     5     2     3   ar
     6     3     4   ar
     7     4     8    1
     8     8     9   ar
     9     9    10   ar
    10    10    11   ar
    11    11    13    1
    12    13    15    1
    13    15    16    1
    14    16    17    1
    15    17    18    1
    16    18    19    1
    17    19    20    1
    18    20    21    1
    19    21    22    1
    20    22    23    1
    21    11    12   ar
    22     4     5   ar
    23     5     6   ar
    24     6     7    1
    25    25    28    1
    26    28    29   ar
    27    29    30   ar
    28    30    31   ar
    29    31    32   ar
    30    32    33   ar
    31    33    34    1
    32     6     1   ar
    33    33    28   ar
    34    12     8   ar
    35    23    18    1
    36    26    27    1
    37    13    14    1
@<TRIPOS>MOLECULE
*****
 34 37 0 0 0
SMALL
GASTEIGER

@<TRIPOS>ATOM
      1 C         138.4744  142.4107  161.7238 C.ar    1  UNL1        0.0784
      2 C         138.8745  143.1708  162.9535 C.ar    1  UNL1        0.0171
      3 C         138.9083  142.4798  164.2844 C.ar    1  UNL1        0.0061
      4 C         138.5419  141.0288  164.3856 C.ar    1  UNL1        0.0575
      5 C         138.1418  140.2687  163.1560 C.ar    1  UNL1        0.0356
      6 C         138.1080  140.9596  161.8251 C.ar    1  UNL1        0.1536
      7 F         137.7079  140.1995  160.5953 F       1  UNL1       -0.2029
      8 C         138.5757  140.3378  165.7167 C.ar    1  UNL1        0.2513
      9 N         137.8124  139.1010  166.0876 N.ar    1  UNL1       -0.1058
     10 N         138.1437  138.7611  167.5106 N.ar    1  UNL1       -0.0923
     11 C         139.1118  139.7880  168.0190 C.ar    1  UNL1        0.3086
     12 O         139.3788  140.7624  166.9103 O.2     1  UNL1       -0.4048
     13 N         139.7081  139.8325  169.3947 N.pl3   1  UNL1       -0.2871
     14 H         139.1238  139.7917  170.1860 H       1  UNL1        0.1512
     15 C         141.1946  139.9392  169.5646 C.3     1  UNL1        0.0925
     16 C         142.1116  139.3422  168.5386 C.3     1  UNL1        0.0386
     17 C         142.7337  140.2157  167.4898 C.3     1  UNL1        0.0738
     18 N         142.4173  139.9895  166.0412 N.3     1  UNL1       -0.2726
     19 C         142.5808  141.1073  165.0543 C.3     1  UNL1        0.0721
     20 C         142.2645  140.8811  163.6057 C.3     1  UNL1        0.0174
     21 C         141.7846  139.5372  163.1437 C.3     1  UNL1        0.0029
     22 C         141.6211  138.4194  164.1305 C.3     1  UNL1        0.0174
     23 C         141.9375  138.6456  165.5792 C.3     1  UNL1        0.0721
     24 O         141.0194  142.8536  160.1985 O.2     1  UNL1       -0.2697
     25 C         139.7131  143.3231  159.6302 C.2     1  UNL1        0.2517
     26 N         138.4405  143.1016  160.3928 N.am    1  UNL1       -0.2786
     27 H         137.5831  143.4097  160.0197 H       1  UNL1        0.1552
     28 C         139.6793  144.0140  158.2992 C.ar    1  UNL1        0.0811
     29 C         140.3213  145.3598  158.1363 C.ar    1  UNL1        0.0068
     30 C         140.2875  146.0507  156.8053 C.ar    1  UNL1        0.0003
     31 C         139.6116  145.3958  155.6373 C.ar    1  UNL1        0.0023
     32 C         138.9696  144.0500  155.8002 C.ar    1  UNL1        0.0298
     33 C         139.0034  143.3591  157.1311 C.ar    1  UNL1        0.1445
     34 F         138.3614  142.0132  157.2941 F       1  UNL1       -0.2040
@<TRIPOS>BOND
     1    24    25    2
     2    25    26   am
     3    26     1    1
     4     1     2   ar
     5     2     3   ar
     6     3     4   ar
     7     4     8    1
     8     8     9   ar
     9     9    10   ar
    10    10    11   ar
    11    11    13    1
    12    13    15    1
    13    15    16    1
    14    16    17    1
    15    17    18    1
    16    18    19    1
    17    19    20    1
    18    20    21    1
    19    21    22    1
    20    22    23    1
    21    11    12   ar
    22     4     5   ar
    23     5     6   ar
    24     6     7    1
    25    25    28    1
    26    28    29   ar
    27    29    30   ar
    28    30    31   ar
    29    31    32   ar
    30    32    33   ar
    31    33    34    1
    32     6     1   ar
    33    33    28   ar
    34    12     8   ar
    35    23    18    1
    36    26    27    1
    37    13    14    1
@<TRIPOS>MOLECULE
*****
 34 37 0 0 0
SMALL
GASTEIGER

@<TRIPOS>ATOM
      1 C         140.2702  143.1188  164.5367 C.ar    1  UNL1        0.0784
      2 C         140.9723  142.3080  163.4881 C.ar    1  UNL1        0.0171
      3 C         141.1943  142.8819  162.1202 C.ar    1  UNL1        0.0061
      4 C         140.7142  144.2667  161.8009 C.ar    1  UNL1        0.0575
      5 C         140.0121  145.0775  162.8495 C.ar    1  UNL1        0.0356
      6 C         139.7901  144.5036  164.2174 C.ar    1  UNL1        0.1536
      7 F         139.0881  145.3144  165.2661 F       1  UNL1       -0.2029
      8 C         140.9362  144.8406  160.4328 C.ar    1  UNL1        0.2513
      9 N         142.2275  144.8262  159.6696 N.ar    1  UNL1       -0.1058
     10 N         141.9953  145.5064  158.3530 N.ar    1  UNL1       -0.0923
     11 C         140.5606  145.9412  158.3025 C.ar    1  UNL1        0.3086
     12 O         139.9060  145.5297  159.5879 O.2     1  UNL1       -0.4048
     13 N         139.8969  146.6610  157.1661 N.pl3   1  UNL1       -0.2871
     14 H         139.1564  147.2849  157.3441 H       1  UNL1        0.1512
     15 C         140.3614  146.4303  155.7587 C.3     1  UNL1        0.0925
     16 C         139.4236  145.8425  154.7462 C.3     1  UNL1        0.0386
     17 C         139.0271  144.3989  154.8403 C.3     1  UNL1        0.0738
     18 N         139.5519  143.5484  155.9588 N.3     1  UNL1       -0.2726
     19 C         140.9613  143.0369  155.9145 C.3     1  UNL1        0.0721
     20 C         141.4861  142.1864  157.0329 C.3     1  UNL1        0.0174
     21 C         140.6015  141.8473  158.1959 C.3     1  UNL1        0.0029
     22 C         139.1921  142.3587  158.2403 C.3     1  UNL1        0.0174
     23 C         138.6673  143.2093  157.1217 C.3     1  UNL1        0.0721
     24 O         142.6063  142.6214  166.3520 O.2     1  UNL1       -0.2697
     25 C         141.2162  142.2962  166.8123 C.2     1  UNL1        0.2517
     26 N         140.0482  142.5449  165.9047 N.am    1  UNL1       -0.2786
     27 H         139.1358  142.3314  166.2068 H       1  UNL1        0.1552
     28 C         140.9942  141.7222  168.1803 C.ar    1  UNL1        0.0811
     29 C         141.3183  140.2830  168.4515 C.ar    1  UNL1        0.0068
     30 C         141.0963  139.7092  169.8195 C.ar    1  UNL1        0.0003
     31 C         140.5501  140.5745  170.9162 C.ar    1  UNL1        0.0023
     32 C         140.2260  142.0137  170.6450 C.ar    1  UNL1        0.0298
     33 C         140.4480  142.5876  169.2771 C.ar    1  UNL1        0.1445
     34 F         140.1238  144.0268  169.0058 F       1  UNL1       -0.2040
@<TRIPOS>BOND
     1    24    25    2
     2    25    26   am
     3    26     1    1
     4     1     2   ar
     5     2     3   ar
     6     3     4   ar
     7     4     8    1
     8     8     9   ar
     9     9    10   ar
    10    10    11   ar
    11    11    13    1
    12    13    15    1
    13    15    16    1
    14    16    17    1
    15    17    18    1
    16    18    19    1
    17    19    20    1
    18    20    21    1
    19    21    22    1
    20    22    23    1
    21    11    12   ar
    22     4     5   ar
    23     5     6   ar
    24     6     7    1
    25    25    28    1
    26    28    29   ar
    27    29    30   ar
    28    30    31   ar
    29    31    32   ar
    30    32    33   ar
    31    33    34    1
    32     6     1   ar
    33    33    28   ar
    34    12     8   ar
    35    23    18    1
    36    26    27    1
    37    13    14    1
@<TRIPOS>MOLECULE
*****
 34 37 0 0 0
SMALL
GASTEIGER

@<TRIPOS>ATOM
      1 C         140.2421  145.2095  157.4870 C.ar    1  UNL1        0.0784
      2 C         140.4993  144.0546  156.5650 C.ar    1  UNL1        0.0171
      3 C         140.5177  142.6547  157.1035 C.ar    1  UNL1        0.0061
      4 C         140.2788  142.4098  158.5640 C.ar    1  UNL1        0.0575
      5 C         140.0215  143.5646  159.4859 C.ar    1  UNL1        0.0356
      6 C         140.0032  144.9645  158.9474 C.ar    1  UNL1        0.1536
      7 F         139.7459  146.1194  159.8694 F       1  UNL1       -0.2029
      8 C         140.2971  141.0098  159.1025 C.ar    1  UNL1        0.2513
      9 N         141.3930  140.0044  158.9072 N.ar    1  UNL1       -0.1058
     10 N         140.9961  138.7427  159.6147 N.ar    1  UNL1       -0.0923
     11 C         139.6548  138.9684  160.2473 C.ar    1  UNL1        0.3086
     12 O         139.2229  140.3696  159.9307 O.2     1  UNL1       -0.4048
     13 N         138.8813  137.9685  161.0548 N.pl3   1  UNL1       -0.2871
     14 H         138.2742  137.3370  160.6056 H       1  UNL1        0.1512
     15 C         139.0329  137.9309  162.5466 C.3     1  UNL1        0.0925
     16 C         139.1201  139.2107  163.3241 C.3     1  UNL1        0.0386
     17 C         137.9685  140.1718  163.3184 C.3     1  UNL1        0.0738
     18 N         138.2058  141.6284  163.5862 N.3     1  UNL1       -0.2726
     19 C         137.7687  142.6561  162.5849 C.3     1  UNL1        0.0721
     20 C         138.0060  144.1127  162.8527 C.3     1  UNL1        0.0174
     21 C         138.6806  144.5418  164.1219 C.3     1  UNL1        0.0029
     22 C         139.1178  143.5141  165.1233 C.3     1  UNL1        0.0174
     23 C         138.8804  142.0574  164.8554 C.3     1  UNL1        0.0721
     24 O         138.1457  146.0259  155.5023 O.2     1  UNL1       -0.2697
     25 C         139.1755  147.0176  155.9562 C.2     1  UNL1        0.2517
     26 N         140.2237  146.6094  156.9485 N.am    1  UNL1       -0.2786
     27 H         140.8996  147.2603  157.2464 H       1  UNL1        0.1552
     28 C         139.1572  148.4175  155.4177 C.ar    1  UNL1        0.0811
     29 C         139.7373  148.7086  154.0655 C.ar    1  UNL1        0.0068
     30 C         139.7189  150.1085  153.5271 C.ar    1  UNL1        0.0003
     31 C         139.1204  151.2173  154.3409 C.ar    1  UNL1        0.0023
     32 C         138.5402  150.9262  155.6931 C.ar    1  UNL1        0.0298
     33 C         138.5586  149.5263  156.2316 C.ar    1  UNL1        0.1445
     34 F         137.9784  149.2352  157.5839 F       1  UNL1       -0.2040
@<TRIPOS>BOND
     1    24    25    2
     2    25    26   am
     3    26     1    1
     4     1     2   ar
     5     2     3   ar
     6     3     4   ar
     7     4     8    1
     8     8     9   ar
     9     9    10   ar
    10    10    11   ar
    11    11    13    1
    12    13    15    1
    13    15    16    1
    14    16    17    1
    15    17    18    1
    16    18    19    1
    17    19    20    1
    18    20    21    1
    19    21    22    1
    20    22    23    1
    21    11    12   ar
    22     4     5   ar
    23     5     6   ar
    24     6     7    1
    25    25    28    1
    26    28    29   ar
    27    29    30   ar
    28    30    31   ar
    29    31    32   ar
    30    32    33   ar
    31    33    34    1
    32     6     1   ar
    33    33    28   ar
    34    12     8   ar
    35    23    18    1
    36    26    27    1
    37    13    14    1
