@<TRIPOS>MOLECULE
*****
 29 31 0 0 0
SMALL
GASTEIGER

@<TRIPOS>ATOM
      1 S         143.3706  138.8422  164.3146 S.O2    1  UNL1        0.0768
      2 O         142.0738  138.0890  164.3457 O.2     1  UNL1       -0.1498
      3 O         144.6674  139.5954  164.2835 O.2     1  UNL1       -0.1498
      4 O         141.7136  140.8463  165.8106 O.2     1  UNL1       -0.2509
      5 C         142.5651  139.8665  166.5623 C.2     1  UNL1        0.3231
      6 N         142.5882  139.8888  168.0619 N.am    1  UNL1       -0.2671
      7 N         143.3936  138.8645  165.8142 N.am    1  UNL1       -0.1690
      8 H         143.1470  139.2457  168.5552 H       1  UNL1        0.1565
      9 H         143.9525  138.2214  166.3075 H       1  UNL1        0.1781
     10 C         141.7597  140.8909  168.8100 C.ar    1  UNL1        0.0516
     11 C         140.3891  140.5196  169.2933 C.ar    1  UNL1        0.0147
     12 C         139.5607  141.5216  170.0413 C.ar    1  UNL1        0.0013
     13 C         140.1028  142.8949  170.3060 C.ar    1  UNL1        0.0001
     14 C         141.4734  143.2662  169.8227 C.ar    1  UNL1        0.0013
     15 C         142.3018  142.2642  169.0747 C.ar    1  UNL1        0.0147
     16 C         143.3476  138.8200  162.8150 C.ar    1  UNL1        0.1255
     17 C         142.5368  137.7852  162.0926 C.ar    1  UNL1        0.0233
     18 C         142.5138  137.7630  160.5929 C.ar    1  UNL1        0.0383
     19 C         143.3015  138.7755  159.8156 C.ar    1  UNL1        0.1387
     20 C         144.1123  139.8103  160.5380 C.ar    1  UNL1        0.0383
     21 C         144.1354  139.8325  162.0376 C.ar    1  UNL1        0.0233
     22 O         143.2785  138.7533  158.3160 O.3     1  UNL1       -0.4740
     23 C         142.5287  137.6737  157.5933 C.3     1  UNL1        0.2226
     24 C         143.2277  136.8342  156.5653 C.3     1  UNL1        0.1200
     25 N         142.8603  135.3892  156.4012 N.3     1  UNL1       -0.2696
     26 C         141.7623  134.8518  155.5320 C.3     1  UNL1        0.0722
     27 C         141.7498  133.3583  155.6710 C.3     1  UNL1        0.0188
     28 C         142.8402  132.9726  156.6262 C.3     1  UNL1        0.0188
     29 C         143.5265  134.2278  157.0774 C.3     1  UNL1        0.0722
@<TRIPOS>BOND
     1     4     5    2
     2     5     6   am
     3     6    10    1
     4    10    11   ar
     5    11    12   ar
     6    12    13   ar
     7    13    14   ar
     8    14    15   ar
     9     5     7   am
    10     7     1    1
    11     1     2    2
    12     1     3    2
    13     1    16    1
    14    16    17   ar
    15    17    18   ar
    16    18    19   ar
    17    19    22    1
    18    22    23    1
    19    23    24    1
    20    24    25    1
    21    25    26    1
    22    26    27    1
    23    27    28    1
    24    28    29    1
    25    19    20   ar
    26    20    21   ar
    27    15    10   ar
    28    21    16   ar
    29    29    25    1
    30     6     8    1
    31     7     9    1
@<TRIPOS>MOLECULE
*****
 29 31 0 0 0
SMALL
GASTEIGER

@<TRIPOS>ATOM
      1 S         138.3345  139.0508  164.7021 S.O2    1  UNL1        0.0768
      2 O         138.8603  137.6462  164.7215 O.2     1  UNL1       -0.1498
      3 O         137.8087  140.4554  164.6826 O.2     1  UNL1       -0.1498
      4 O         140.3547  140.4121  166.4530 O.2     1  UNL1       -0.2509
      5 C         139.1905  139.6944  167.0691 C.2     1  UNL1        0.3231
      6 N         139.0365  139.6574  168.5607 N.am    1  UNL1       -0.2671
      7 N         138.1804  139.0138  166.1936 N.am    1  UNL1       -0.1690
      8 H         138.2724  139.1863  168.9651 H       1  UNL1        0.1565
      9 H         137.4163  138.5427  166.5980 H       1  UNL1        0.1781
     10 C         140.0466  140.3381  169.4362 C.ar    1  UNL1        0.0516
     11 C         139.7469  141.6880  170.0175 C.ar    1  UNL1        0.0147
     12 C         140.7570  142.3686  170.8929 C.ar    1  UNL1        0.0013
     13 C         142.0668  141.6992  171.1871 C.ar    1  UNL1        0.0001
     14 C         142.3665  140.3493  170.6058 C.ar    1  UNL1        0.0013
     15 C         141.3564  139.6687  169.7304 C.ar    1  UNL1        0.0147
     16 C         138.4885  139.0878  163.2105 C.ar    1  UNL1        0.1255
     17 C         139.1897  137.9677  162.5008 C.ar    1  UNL1        0.0233
     18 C         139.3437  138.0048  161.0092 C.ar    1  UNL1        0.0383
     19 C         138.7967  139.1620  160.2272 C.ar    1  UNL1        0.1387
     20 C         138.0955  140.2822  160.9369 C.ar    1  UNL1        0.0383
     21 C         137.9414  140.2451  162.4285 C.ar    1  UNL1        0.0233
     22 O         138.9507  139.1990  158.7357 O.3     1  UNL1       -0.4740
     23 C         140.2046  138.6783  158.0980 C.3     1  UNL1        0.2226
     24 C         141.5055  139.3957  158.3060 C.3     1  UNL1        0.1200
     25 N         142.3503  139.0841  159.5057 N.3     1  UNL1       -0.2696
     26 C         142.9071  137.7389  159.8667 C.3     1  UNL1        0.0722
     27 C         143.6875  137.8865  161.1391 C.3     1  UNL1        0.0188
     28 C         143.6131  139.3229  161.5646 C.3     1  UNL1        0.0188
     29 C         142.7867  140.0631  160.5550 C.3     1  UNL1        0.0722
@<TRIPOS>BOND
     1     4     5    2
     2     5     6   am
     3     6    10    1
     4    10    11   ar
     5    11    12   ar
     6    12    13   ar
     7    13    14   ar
     8    14    15   ar
     9     5     7   am
    10     7     1    1
    11     1     2    2
    12     1     3    2
    13     1    16    1
    14    16    17   ar
    15    17    18   ar
    16    18    19   ar
    17    19    22    1
    18    22    23    1
    19    23    24    1
    20    24    25    1
    21    25    26    1
    22    26    27    1
    23    27    28    1
    24    28    29    1
    25    19    20   ar
    26    20    21   ar
    27    15    10   ar
    28    21    16   ar
    29    29    25    1
    30     6     8    1
    31     7     9    1
@<TRIPOS>MOLECULE
*****
 29 31 0 0 0
SMALL
GASTEIGER

@<TRIPOS>ATOM
      1 S         141.5351  144.6085  162.1573 S.O2    1  UNL1        0.0768
      2 O         142.2537  143.3383  161.8108 O.2     1  UNL1       -0.1498
      3 O         140.8165  145.8787  162.5038 O.2     1  UNL1       -0.1498
      4 O         139.5083  144.4556  159.9508 O.2     1  UNL1       -0.2509
      5 C         140.8460  145.0854  159.6981 C.2     1  UNL1        0.3231
      6 N         141.1703  145.6387  158.3422 N.am    1  UNL1       -0.2671
      7 N         141.8594  145.1618  160.8014 N.am    1  UNL1       -0.1690
      8 H         142.0482  146.0521  158.1763 H       1  UNL1        0.1565
      9 H         142.7374  145.5752  160.6355 H       1  UNL1        0.1781
     10 C         140.1568  145.5623  157.2389 C.ar    1  UNL1        0.0516
     11 C         139.6720  144.2271  156.7570 C.ar    1  UNL1        0.0147
     12 C         138.6586  144.1507  155.6538 C.ar    1  UNL1        0.0013
     13 C         138.1300  145.4095  155.0324 C.ar    1  UNL1        0.0001
     14 C         138.6148  146.7446  155.5143 C.ar    1  UNL1        0.0013
     15 C         139.6282  146.8210  156.6175 C.ar    1  UNL1        0.0147
     16 C         141.2108  144.0551  163.5133 C.ar    1  UNL1        0.1255
     17 C         139.9012  144.3867  164.1650 C.ar    1  UNL1        0.0233
     18 C         139.5769  143.8333  165.5210 C.ar    1  UNL1        0.0383
     19 C         140.5623  142.9484  166.2252 C.ar    1  UNL1        0.1387
     20 C         141.8720  142.6169  165.5734 C.ar    1  UNL1        0.0383
     21 C         142.1963  143.1702  164.2175 C.ar    1  UNL1        0.0233
     22 O         140.2380  142.3951  167.5811 O.3     1  UNL1       -0.4740
     23 C         140.3553  140.9218  167.8377 C.3     1  UNL1        0.2226
     24 C         139.4566  139.9611  167.1169 C.3     1  UNL1        0.1200
     25 N         140.0051  139.1035  166.0152 N.3     1  UNL1       -0.2696
     26 C         139.1984  138.3032  165.0362 C.3     1  UNL1        0.0722
     27 C         140.1513  137.6007  164.1150 C.3     1  UNL1        0.0188
     28 C         141.5470  137.9669  164.5248 C.3     1  UNL1        0.0188
     29 C         141.4566  138.8957  165.6992 C.3     1  UNL1        0.0722
@<TRIPOS>BOND
     1     4     5    2
     2     5     6   am
     3     6    10    1
     4    10    11   ar
     5    11    12   ar
     6    12    13   ar
     7    13    14   ar
     8    14    15   ar
     9     5     7   am
    10     7     1    1
    11     1     2    2
    12     1     3    2
    13     1    16    1
    14    16    17   ar
    15    17    18   ar
    16    18    19   ar
    17    19    22    1
    18    22    23    1
    19    23    24    1
    20    24    25    1
    21    25    26    1
    22    26    27    1
    23    27    28    1
    24    28    29    1
    25    19    20   ar
    26    20    21   ar
    27    15    10   ar
    28    21    16   ar
    29    29    25    1
    30     6     8    1
    31     7     9    1
@<TRIPOS>MOLECULE
*****
 29 31 0 0 0
SMALL
GASTEIGER

@<TRIPOS>ATOM
      1 S         138.5174  138.9487  164.5505 S.O2    1  UNL1        0.0768
      2 O         139.1766  137.6053  164.6542 O.2     1  UNL1       -0.1498
      3 O         137.8583  140.2920  164.4469 O.2     1  UNL1       -0.1498
      4 O         140.4616  140.3163  166.3808 O.2     1  UNL1       -0.2509
      5 C         139.2534  139.6309  166.9470 C.2     1  UNL1        0.3231
      6 N         139.0173  139.6294  168.4282 N.am    1  UNL1       -0.2671
      7 N         138.2813  138.9471  166.0318 N.am    1  UNL1       -0.1690
      8 H         138.2243  139.1796  168.7998 H       1  UNL1        0.1565
      9 H         137.4883  138.4973  166.4034 H       1  UNL1        0.1781
     10 C         139.9894  140.3132  169.3434 C.ar    1  UNL1        0.0516
     11 C         141.3219  139.6853  169.6265 C.ar    1  UNL1        0.0147
     12 C         142.2939  140.3691  170.5417 C.ar    1  UNL1        0.0013
     13 C         141.9335  141.6808  171.1737 C.ar    1  UNL1        0.0001
     14 C         140.6010  142.3087  170.8906 C.ar    1  UNL1        0.0013
     15 C         139.6290  141.6249  169.9754 C.ar    1  UNL1        0.0147
     16 C         138.7535  138.9502  163.0693 C.ar    1  UNL1        0.1255
     17 C         137.8787  139.7738  162.1712 C.ar    1  UNL1        0.0233
     18 C         138.1149  139.7753  160.6899 C.ar    1  UNL1        0.0383
     19 C         139.2258  138.9533  160.1067 C.ar    1  UNL1        0.1387
     20 C         140.1006  138.1297  161.0047 C.ar    1  UNL1        0.0383
     21 C         139.8645  138.1282  162.4860 C.ar    1  UNL1        0.0233
     22 O         139.4619  138.9548  158.6254 O.3     1  UNL1       -0.4740
     23 C         140.6811  138.2891  158.0595 C.3     1  UNL1        0.2226
     24 C         140.5659  137.4269  156.8374 C.3     1  UNL1        0.1200
     25 N         141.7783  136.7311  156.2934 N.3     1  UNL1       -0.2696
     26 C         143.1703  137.2883  156.2518 C.3     1  UNL1        0.0722
     27 C         144.0639  136.2574  155.6283 C.3     1  UNL1        0.0188
     28 C         143.2241  135.0630  155.2844 C.3     1  UNL1        0.0188
     29 C         141.8115  135.3558  155.6956 C.3     1  UNL1        0.0722
@<TRIPOS>BOND
     1     4     5    2
     2     5     6   am
     3     6    10    1
     4    10    11   ar
     5    11    12   ar
     6    12    13   ar
     7    13    14   ar
     8    14    15   ar
     9     5     7   am
    10     7     1    1
    11     1     2    2
    12     1     3    2
    13     1    16    1
    14    16    17   ar
    15    17    18   ar
    16    18    19   ar
    17    19    22    1
    18    22    23    1
    19    23    24    1
    20    24    25    1
    21    25    26    1
    22    26    27    1
    23    27    28    1
    24    28    29    1
    25    19    20   ar
    26    20    21   ar
    27    15    10   ar
    28    21    16   ar
    29    29    25    1
    30     6     8    1
    31     7     9    1
@<TRIPOS>MOLECULE
*****
 29 31 0 0 0
SMALL
GASTEIGER

@<TRIPOS>ATOM
      1 S         141.6814  144.3435  162.1615 S.O2    1  UNL1        0.0768
      2 O         140.6732  145.4090  162.4747 O.2     1  UNL1       -0.1498
      3 O         142.6897  143.2781  161.8482 O.2     1  UNL1       -0.1498
      4 O         140.1746  144.1584  159.5739 O.2     1  UNL1       -0.2509
      5 C         141.3869  145.0360  159.6747 C.2     1  UNL1        0.3231
      6 N         141.8458  145.8210  158.4818 N.am    1  UNL1       -0.2671
      7 N         142.1403  145.1285  160.9686 N.am    1  UNL1       -0.1690
      8 H         142.6415  146.3969  158.5480 H       1  UNL1        0.1565
      9 H         142.9360  145.7045  161.0347 H       1  UNL1        0.1781
     10 C         141.0924  145.7285  157.1880 C.ar    1  UNL1        0.0516
     11 C         139.8587  146.5552  156.9778 C.ar    1  UNL1        0.0147
     12 C         139.1053  146.4627  155.6840 C.ar    1  UNL1        0.0013
     13 C         139.5857  145.5434  154.6005 C.ar    1  UNL1        0.0001
     14 C         140.8195  144.7166  154.8107 C.ar    1  UNL1        0.0013
     15 C         141.5728  144.8091  156.1045 C.ar    1  UNL1        0.0147
     16 C         141.2225  143.5585  163.3544 C.ar    1  UNL1        0.1255
     17 C         140.2897  144.1829  164.3495 C.ar    1  UNL1        0.0233
     18 C         139.8308  143.3978  165.5424 C.ar    1  UNL1        0.0383
     19 C         140.3046  141.9884  165.7403 C.ar    1  UNL1        0.1387
     20 C         141.2374  141.3641  164.7452 C.ar    1  UNL1        0.0383
     21 C         141.6963  142.1491  163.5523 C.ar    1  UNL1        0.0233
     22 O         139.8457  141.2034  166.9332 O.3     1  UNL1       -0.4740
     23 C         139.3950  139.7823  166.7678 C.3     1  UNL1        0.2226
     24 C         138.2201  139.4654  165.8907 C.3     1  UNL1        0.1200
     25 N         138.4327  139.1311  164.4440 N.3     1  UNL1       -0.2696
     26 C         138.1199  140.0215  163.2781 C.3     1  UNL1        0.0722
     27 C         138.4893  139.2884  162.0227 C.3     1  UNL1        0.0188
     28 C         139.0306  137.9449  162.4127 C.3     1  UNL1        0.0188
     29 C         138.9956  137.8477  163.9091 C.3     1  UNL1        0.0722
@<TRIPOS>BOND
     1     4     5    2
     2     5     6   am
     3     6    10    1
     4    10    11   ar
     5    11    12   ar
     6    12    13   ar
     7    13    14   ar
     8    14    15   ar
     9     5     7   am
    10     7     1    1
    11     1     2    2
    12     1     3    2
    13     1    16    1
    14    16    17   ar
    15    17    18   ar
    16    18    19   ar
    17    19    22    1
    18    22    23    1
    19    23    24    1
    20    24    25    1
    21    25    26    1
    22    26    27    1
    23    27    28    1
    24    28    29    1
    25    19    20   ar
    26    20    21   ar
    27    15    10   ar
    28    21    16   ar
    29    29    25    1
    30     6     8    1
    31     7     9    1
@<TRIPOS>MOLECULE
*****
 29 31 0 0 0
SMALL
GASTEIGER

@<TRIPOS>ATOM
      1 S         138.7093  139.3383  164.3992 S.O2    1  UNL1        0.0768
      2 O         139.4489  138.0336  164.4219 O.2     1  UNL1       -0.1498
      3 O         137.9697  140.6431  164.3765 O.2     1  UNL1       -0.1498
      4 O         140.7634  140.9805  165.8429 O.2     1  UNL1       -0.2509
      5 C         139.7505  140.1936  166.6206 C.2     1  UNL1        0.3231
      6 N         139.7647  140.2277  168.1201 N.am    1  UNL1       -0.2671
      7 N         138.7235  139.3725  165.8987 N.am    1  UNL1       -0.1690
      8 H         139.0999  139.7112  168.6305 H       1  UNL1        0.1565
      9 H         138.0587  138.8560  166.4091 H       1  UNL1        0.1781
     10 C         140.7917  141.0488  168.8420 C.ar    1  UNL1        0.0516
     11 C         140.4888  142.4697  169.2152 C.ar    1  UNL1        0.0147
     12 C         141.5159  143.2907  169.9371 C.ar    1  UNL1        0.0013
     13 C         142.8458  142.6908  170.2857 C.ar    1  UNL1        0.0001
     14 C         143.1486  141.2700  169.9125 C.ar    1  UNL1        0.0013
     15 C         142.1216  140.4489  169.1906 C.ar    1  UNL1        0.0147
     16 C         138.6952  139.3042  162.8997 C.ar    1  UNL1        0.1255
     17 C         137.7391  140.1741  162.1387 C.ar    1  UNL1        0.0233
     18 C         137.7250  140.1399  160.6391 C.ar    1  UNL1        0.0383
     19 C         138.6669  139.2359  159.9006 C.ar    1  UNL1        0.1387
     20 C         139.6230  138.3660  160.6616 C.ar    1  UNL1        0.0383
     21 C         139.6371  138.4001  162.1611 C.ar    1  UNL1        0.0233
     22 O         138.6528  139.2017  158.4011 O.3     1  UNL1       -0.4740
     23 C         138.6656  140.4832  157.6215 C.3     1  UNL1        0.2226
     24 C         137.3749  141.1701  157.2864 C.3     1  UNL1        0.1200
     25 N         136.4469  140.5695  156.2725 N.3     1  UNL1       -0.2696
     26 C         134.9546  140.4738  156.3906 C.3     1  UNL1        0.0722
     27 C         134.4337  139.8042  155.1535 C.3     1  UNL1        0.0188
     28 C         135.6040  139.4862  154.2708 C.3     1  UNL1        0.0188
     29 C         136.8482  139.9591  154.9624 C.3     1  UNL1        0.0722
@<TRIPOS>BOND
     1     4     5    2
     2     5     6   am
     3     6    10    1
     4    10    11   ar
     5    11    12   ar
     6    12    13   ar
     7    13    14   ar
     8    14    15   ar
     9     5     7   am
    10     7     1    1
    11     1     2    2
    12     1     3    2
    13     1    16    1
    14    16    17   ar
    15    17    18   ar
    16    18    19   ar
    17    19    22    1
    18    22    23    1
    19    23    24    1
    20    24    25    1
    21    25    26    1
    22    26    27    1
    23    27    28    1
    24    28    29    1
    25    19    20   ar
    26    20    21   ar
    27    15    10   ar
    28    21    16   ar
    29    29    25    1
    30     6     8    1
    31     7     9    1
@<TRIPOS>MOLECULE
*****
 29 31 0 0 0
SMALL
GASTEIGER

@<TRIPOS>ATOM
      1 S         138.8650  138.8632  161.7538 S.O2    1  UNL1        0.0768
      2 O         140.2325  139.4781  161.7948 O.2     1  UNL1       -0.1498
      3 O         137.4975  138.2483  161.7128 O.2     1  UNL1       -0.1498
      4 O         137.8142  141.1498  160.1206 O.2     1  UNL1       -0.2509
      5 C         138.4087  139.9528  159.4398 C.2     1  UNL1        0.3231
      6 N         138.4777  139.8990  157.9424 N.am    1  UNL1       -0.2671
      7 N         138.9341  138.8094  160.2564 N.am    1  UNL1       -0.1690
      8 H         138.8679  139.1133  157.4955 H       1  UNL1        0.1565
      9 H         139.3243  138.0237  159.8095 H       1  UNL1        0.1781
     10 C         137.9523  141.0423  157.1257 C.ar    1  UNL1        0.0516
     11 C         136.6116  140.9358  156.4616 C.ar    1  UNL1        0.0147
     12 C         136.0862  142.0791  155.6451 C.ar    1  UNL1        0.0013
     13 C         136.9016  143.3289  155.4926 C.ar    1  UNL1        0.0001
     14 C         138.2423  143.4354  156.1567 C.ar    1  UNL1        0.0013
     15 C         138.7676  142.2921  156.9733 C.ar    1  UNL1        0.0147
     16 C         138.7959  138.9170  163.2512 C.ar    1  UNL1        0.1255
     17 C         138.9083  137.6543  164.0530 C.ar    1  UNL1        0.0233
     18 C         138.8393  137.7081  165.5505 C.ar    1  UNL1        0.0383
     19 C         138.6578  139.0246  166.2461 C.ar    1  UNL1        0.1387
     20 C         138.5454  140.2873  165.4443 C.ar    1  UNL1        0.0383
     21 C         138.6145  140.2335  163.9469 C.ar    1  UNL1        0.0233
     22 O         138.5887  139.0784  167.7435 O.3     1  UNL1       -0.4740
     23 C         139.3420  140.1382  168.4915 C.3     1  UNL1        0.2226
     24 C         140.8270  140.0203  168.6670 C.3     1  UNL1        0.1200
     25 N         141.7398  140.2309  167.4954 N.3     1  UNL1       -0.2696
     26 C         142.4086  139.1537  166.6940 C.3     1  UNL1        0.0722
     27 C         143.2261  139.8128  165.6228 C.3     1  UNL1        0.0188
     28 C         143.0625  141.2973  165.7622 C.3     1  UNL1        0.0188
     29 C         142.1439  141.5557  166.9196 C.3     1  UNL1        0.0722
@<TRIPOS>BOND
     1     4     5    2
     2     5     6   am
     3     6    10    1
     4    10    11   ar
     5    11    12   ar
     6    12    13   ar
     7    13    14   ar
     8    14    15   ar
     9     5     7   am
    10     7     1    1
    11     1     2    2
    12     1     3    2
    13     1    16    1
    14    16    17   ar
    15    17    18   ar
    16    18    19   ar
    17    19    22    1
    18    22    23    1
    19    23    24    1
    20    24    25    1
    21    25    26    1
    22    26    27    1
    23    27    28    1
    24    28    29    1
    25    19    20   ar
    26    20    21   ar
    27    15    10   ar
    28    21    16   ar
    29    29    25    1
    30     6     8    1
    31     7     9    1
@<TRIPOS>MOLECULE
*****
 29 31 0 0 0
SMALL
GASTEIGER

@<TRIPOS>ATOM
      1 S         139.4946  138.6816  164.2887 S.O2    1  UNL1        0.0768
      2 O         138.5897  139.8136  163.9020 O.2     1  UNL1       -0.1498
      3 O         140.3996  137.5496  164.6753 O.2     1  UNL1       -0.1498
      4 O         141.0648  140.1738  166.3642 O.2     1  UNL1       -0.2509
      5 C         139.7746  139.5056  166.7367 C.2     1  UNL1        0.3231
      6 N         139.2694  139.5835  168.1469 N.am    1  UNL1       -0.2671
      7 N         138.9895  138.7595  165.6989 N.am    1  UNL1       -0.1690
      8 H         138.4226  139.1449  168.3913 H       1  UNL1        0.1565
      9 H         138.1426  138.3209  165.9433 H       1  UNL1        0.1781
     10 C         140.0545  140.3296  169.1847 C.ar    1  UNL1        0.0516
     11 C         139.5797  141.6689  169.6650 C.ar    1  UNL1        0.0147
     12 C         140.3648  142.4150  170.7027 C.ar    1  UNL1        0.0013
     13 C         141.6246  141.8217  171.2602 C.ar    1  UNL1        0.0001
     14 C         142.0994  140.4824  170.7800 C.ar    1  UNL1        0.0013
     15 C         141.3143  139.7363  169.7422 C.ar    1  UNL1        0.0147
     16 C         139.9998  138.6038  162.8785 C.ar    1  UNL1        0.1255
     17 C         141.4009  138.1413  162.6081 C.ar    1  UNL1        0.0233
     18 C         141.9060  138.0634  161.1979 C.ar    1  UNL1        0.0383
     19 C         141.0101  138.4481  160.0580 C.ar    1  UNL1        0.1387
     20 C         139.6090  138.9105  160.3283 C.ar    1  UNL1        0.0383
     21 C         139.1039  138.9884  161.7385 C.ar    1  UNL1        0.0233
     22 O         141.5153  138.3702  158.6478 O.3     1  UNL1       -0.4740
     23 C         142.6323  137.4307  158.3021 C.3     1  UNL1        0.2226
     24 C         142.7435  136.8769  156.9124 C.3     1  UNL1        0.1200
     25 N         142.6555  135.3967  156.6858 N.3     1  UNL1       -0.2696
     26 C         141.8006  134.7109  155.6617 C.3     1  UNL1        0.0722
     27 C         142.0236  133.2328  155.7864 C.3     1  UNL1        0.0188
     28 C         143.0163  133.0051  156.8875 C.3     1  UNL1        0.0188
     29 C         143.4069  134.3425  157.4434 C.3     1  UNL1        0.0722
@<TRIPOS>BOND
     1     4     5    2
     2     5     6   am
     3     6    10    1
     4    10    11   ar
     5    11    12   ar
     6    12    13   ar
     7    13    14   ar
     8    14    15   ar
     9     5     7   am
    10     7     1    1
    11     1     2    2
    12     1     3    2
    13     1    16    1
    14    16    17   ar
    15    17    18   ar
    16    18    19   ar
    17    19    22    1
    18    22    23    1
    19    23    24    1
    20    24    25    1
    21    25    26    1
    22    26    27    1
    23    27    28    1
    24    28    29    1
    25    19    20   ar
    26    20    21   ar
    27    15    10   ar
    28    21    16   ar
    29    29    25    1
    30     6     8    1
    31     7     9    1
@<TRIPOS>MOLECULE
*****
 29 31 0 0 0
SMALL
GASTEIGER

@<TRIPOS>ATOM
      1 S         141.1858  144.6266  161.4038 S.O2    1  UNL1        0.0768
      2 O         140.1195  145.6620  161.6061 O.2     1  UNL1       -0.1498
      3 O         142.2521  143.5913  161.2014 O.2     1  UNL1       -0.1498
      4 O         140.3829  144.2444  158.5386 O.2     1  UNL1       -0.2509
      5 C         141.4036  145.2827  158.8993 C.2     1  UNL1        0.3231
      6 N         142.0228  146.1299  157.8275 N.am    1  UNL1       -0.2671
      7 N         141.8050  145.4738  160.3320 N.am    1  UNL1       -0.1690
      8 H         142.6927  146.8114  158.0643 H       1  UNL1        0.1565
      9 H         142.4749  146.1553  160.5688 H       1  UNL1        0.1781
     10 C         141.6214  145.9388  156.3949 C.ar    1  UNL1        0.0516
     11 C         142.4253  145.0383  155.5045 C.ar    1  UNL1        0.0147
     12 C         142.0239  144.8472  154.0719 C.ar    1  UNL1        0.0013
     13 C         140.8186  145.5566  153.5297 C.ar    1  UNL1        0.0001
     14 C         140.0147  146.4571  154.4201 C.ar    1  UNL1        0.0013
     15 C         140.4161  146.6481  155.8527 C.ar    1  UNL1        0.0147
     16 C         140.5665  143.7795  162.4756 C.ar    1  UNL1        0.1255
     17 C         139.2098  144.1246  163.0141 C.ar    1  UNL1        0.0233
     18 C         138.5905  143.2773  164.0860 C.ar    1  UNL1        0.0383
     19 C         139.3281  142.0850  164.6192 C.ar    1  UNL1        0.1387
     20 C         140.6849  141.7399  164.0807 C.ar    1  UNL1        0.0383
     21 C         141.3041  142.5871  163.0089 C.ar    1  UNL1        0.0233
     22 O         138.7089  141.2378  165.6910 O.3     1  UNL1       -0.4740
     23 C         139.4316  140.0262  166.2005 C.3     1  UNL1        0.2226
     24 C         140.4420  140.1630  167.3007 C.3     1  UNL1        0.1200
     25 N         140.3048  141.2619  168.3125 N.3     1  UNL1       -0.2696
     26 C         139.7523  141.1193  169.6997 C.3     1  UNL1        0.0722
     27 C         139.8021  142.4656  170.3593 C.3     1  UNL1        0.0188
     28 C         140.3855  143.4403  169.3797 C.3     1  UNL1        0.0188
     29 C         140.6961  142.6964  168.1147 C.3     1  UNL1        0.0722
@<TRIPOS>BOND
     1     4     5    2
     2     5     6   am
     3     6    10    1
     4    10    11   ar
     5    11    12   ar
     6    12    13   ar
     7    13    14   ar
     8    14    15   ar
     9     5     7   am
    10     7     1    1
    11     1     2    2
    12     1     3    2
    13     1    16    1
    14    16    17   ar
    15    17    18   ar
    16    18    19   ar
    17    19    22    1
    18    22    23    1
    19    23    24    1
    20    24    25    1
    21    25    26    1
    22    26    27    1
    23    27    28    1
    24    28    29    1
    25    19    20   ar
    26    20    21   ar
    27    15    10   ar
    28    21    16   ar
    29    29    25    1
    30     6     8    1
    31     7     9    1
