@<TRIPOS>MOLECULE
*****
 48 53 0 0 0
SMALL
GASTEIGER

@<TRIPOS>ATOM
      1 C         143.1787  141.0999  158.2527 C.2     1  UNL1        0.2459
      2 O         144.4079  141.5619  158.9776 O.2     1  UNL1       -0.2701
      3 N         142.0933  142.0793  157.9170 N.am    1  UNL1       -0.2975
      4 H         141.2866  141.7760  157.4412 H       1  UNL1        0.1499
      5 C         142.7476  136.7755  157.0847 C.ar    1  UNL1        0.0536
      6 C         142.5447  137.1908  158.5117 C.ar    1  UNL1        0.0048
      7 C         142.6885  138.6323  158.9010 C.ar    1  UNL1        0.0047
      8 C         143.0350  139.6585  157.8633 C.ar    1  UNL1        0.0534
      9 C         143.2379  139.2432  156.4363 C.ar    1  UNL1        0.0047
     10 C         143.0942  137.8017  156.0470 C.ar    1  UNL1        0.0048
     11 C         143.3483  131.4990  156.7213 C.ar    1  UNL1        0.0143
     12 C         142.6789  130.4350  155.9030 C.ar    1  UNL1        0.0091
     13 C         141.5890  130.8036  154.9407 C.ar    1  UNL1        0.0698
     14 C         141.1684  132.2362  154.7967 C.ar    1  UNL1        0.0326
     15 C         141.8378  133.3002  155.6150 C.ar    1  UNL1        0.1192
     16 N         141.6376  134.7850  155.6879 N.ar    1  UNL1       -0.2082
     17 C         142.6039  135.3341  156.6953 C.ar    1  UNL1        0.2296
     18 O         143.4013  134.1886  157.2450 O.2     1  UNL1       -0.4349
     19 C         142.9278  132.9316  156.5774 C.ar    1  UNL1        0.1607
     20 C         145.5434  132.1024  157.9734 C.3     1  UNL1        0.0048
     21 C         144.4383  131.1304  157.6837 C.3     1  UNL1        0.0254
     22 C         144.4232  129.7897  158.3564 C.3     1  UNL1        0.0048
     23 C         140.9195  129.7395  154.1223 C.1     1  UNL1        0.1005
     24 N         140.2501  128.6755  153.3040 N.1     1  UNL1       -0.1908
     25 C         142.2370  143.5207  158.3064 C.3     1  UNL1        0.1355
     26 C         141.7327  143.9917  159.6382 C.3     1  UNL1        0.2101
     27 C         141.7435  143.2031  160.9141 C.3     1  UNL1        0.1483
     28 N         141.1465  144.0580  161.9924 N.am    1  UNL1       -0.2059
     29 C         140.7667  145.3750  161.3829 C.2     1  UNL1        0.4098
     30 O         140.1355  146.5300  162.1022 O.2     1  UNL1       -0.2258
     31 O         141.1290  145.3339  159.9279 O.3     1  UNL1       -0.4345
     32 C         140.9618  143.6650  163.4282 C.ar    1  UNL1        0.1400
     33 C         139.6236  143.8313  164.0851 C.ar    1  UNL1        0.0348
     34 C         139.4388  143.4383  165.5209 C.ar    1  UNL1        0.0045
     35 C         140.5923  142.8790  166.2998 C.ar    1  UNL1        0.0222
     36 C         141.9305  142.7127  165.6428 C.ar    1  UNL1        0.1004
     37 N         142.1152  143.1057  164.2071 N.ar    1  UNL1       -0.2287
     38 C         140.4075  142.4860  167.7355 C.ar    1  UNL1        0.0358
     39 C         140.3923  143.5376  168.8049 C.ar    1  UNL1        0.0031
     40 C         140.2075  143.1446  170.2407 C.ar    1  UNL1        0.0002
     41 C         140.0379  141.7000  170.6070 C.ar    1  UNL1        0.0031
     42 C         140.0532  140.6483  169.5375 C.ar    1  UNL1        0.0372
     43 C         140.2379  141.0413  168.1018 C.ar    1  UNL1        0.1468
     44 O         140.2532  139.9897  167.0323 O.3     1  UNL1       -0.4045
     45 C         139.0068  139.6968  166.2505 C.3     1  UNL1        0.5753
     46 F         137.7606  139.4040  165.4688 F       1  UNL1       -0.1328
     47 F         138.3055  139.3026  167.5164 F       1  UNL1       -0.1328
     48 F         139.7083  140.0911  164.9846 F       1  UNL1       -0.1328
@<TRIPOS>BOND
     1    20    21    1
     2    21    22    1
     3    21    11    1
     4    11    12   ar
     5    12    13   ar
     6    13    23    1
     7    23    24    3
     8    13    14   ar
     9    14    15   ar
    10    15    16   ar
    11    16    17   ar
    12    17     5    1
    13     5     6   ar
    14     6     7   ar
    15     7     8   ar
    16     8     1    1
    17     1     2    2
    18     1     3   am
    19     3    25    1
    20    25    26    1
    21    26    27    1
    22    27    28    1
    23    28    32    1
    24    32    33   ar
    25    33    34   ar
    26    34    35   ar
    27    35    38    1
    28    38    39   ar
    29    39    40   ar
    30    40    41   ar
    31    41    42   ar
    32    42    43   ar
    33    43    44    1
    34    44    45    1
    35    45    46    1
    36    45    47    1
    37    45    48    1
    38    35    36   ar
    39    36    37   ar
    40    28    29   am
    41    29    30    2
    42    29    31    1
    43     8     9   ar
    44     9    10   ar
    45    17    18   ar
    46    18    19   ar
    47    19    11   ar
    48    19    15   ar
    49    10     5   ar
    50    31    26    1
    51    37    32   ar
    52    43    38   ar
    53     3     4    1
@<TRIPOS>MOLECULE
*****
 48 53 0 0 0
SMALL
GASTEIGER

@<TRIPOS>ATOM
      1 C         143.5423  139.3896  156.5883 C.2     1  UNL1        0.2459
      2 O         143.4887  140.4003  155.4813 O.2     1  UNL1       -0.2701
      3 N         143.9347  139.8135  157.9727 N.am    1  UNL1       -0.2975
      4 H         143.9698  139.1501  158.6992 H       1  UNL1        0.1499
      5 C         142.5258  135.0855  155.7563 C.ar    1  UNL1        0.0536
      6 C         143.8874  135.6141  155.4149 C.ar    1  UNL1        0.0048
      7 C         144.2262  137.0488  155.6923 C.ar    1  UNL1        0.0047
      8 C         143.2034  137.9549  156.3110 C.ar    1  UNL1        0.0534
      9 C         141.8418  137.4264  156.6524 C.ar    1  UNL1        0.0047
     10 C         141.5030  135.9917  156.3751 C.ar    1  UNL1        0.0048
     11 C         142.4891  129.7628  155.7124 C.ar    1  UNL1        0.0143
     12 C         141.6371  128.7393  155.0221 C.ar    1  UNL1        0.0091
     13 C         140.5202  129.1771  154.1219 C.ar    1  UNL1        0.0698
     14 C         140.2551  130.6386  153.9118 C.ar    1  UNL1        0.0326
     15 C         141.1070  131.6621  154.6021 C.ar    1  UNL1        0.1192
     16 N         141.0841  133.1618  154.5876 N.ar    1  UNL1       -0.2082
     17 C         142.1869  133.6509  155.4790 C.ar    1  UNL1        0.2296
     18 O         142.8915  132.4534  156.0444 O.2     1  UNL1       -0.4349
     19 C         142.2240  131.2242  155.5024 C.ar    1  UNL1        0.1607
     20 C         144.8923  128.8260  156.0239 C.3     1  UNL1        0.0048
     21 C         143.6061  129.3250  156.6128 C.3     1  UNL1        0.0254
     22 C         143.4369  129.3862  158.1020 C.3     1  UNL1        0.0048
     23 C         139.6682  128.1536  153.4315 C.1     1  UNL1        0.1005
     24 N         138.8162  127.1300  152.7412 N.1     1  UNL1       -0.1908
     25 C         144.2735  141.2482  158.2500 C.3     1  UNL1        0.1355
     26 C         144.0977  141.8069  159.6309 C.3     1  UNL1        0.2101
     27 C         143.4953  141.0893  160.8022 C.3     1  UNL1        0.1483
     28 N         143.5187  142.0202  161.9781 N.am    1  UNL1       -0.2059
     29 C         144.1355  143.3133  161.5335 C.2     1  UNL1        0.4098
     30 O         144.3558  144.5253  162.3893 O.2     1  UNL1       -0.2258
     31 O         144.4933  143.1813  160.0828 O.3     1  UNL1       -0.4345
     32 C         143.0138  141.7123  163.3567 C.ar    1  UNL1        0.1400
     33 C         143.4656  140.4668  164.0600 C.ar    1  UNL1        0.0348
     34 C         142.9608  140.1588  165.4385 C.ar    1  UNL1        0.0045
     35 C         142.0042  141.0964  166.1137 C.ar    1  UNL1        0.0222
     36 C         141.5524  142.3418  165.4103 C.ar    1  UNL1        0.1004
     37 N         142.0572  142.6498  164.0319 N.ar    1  UNL1       -0.2287
     38 C         141.4994  140.7884  167.4922 C.ar    1  UNL1        0.0358
     39 C         142.3952  140.9821  168.6796 C.ar    1  UNL1        0.0031
     40 C         141.8904  140.6741  170.0581 C.ar    1  UNL1        0.0002
     41 C         140.4897  140.1725  170.2492 C.ar    1  UNL1        0.0031
     42 C         139.5939  139.9788  169.0618 C.ar    1  UNL1        0.0372
     43 C         140.0988  140.2868  167.6833 C.ar    1  UNL1        0.1468
     44 O         139.2029  140.0931  166.4959 O.3     1  UNL1       -0.4045
     45 C         138.7489  138.7148  166.1158 C.3     1  UNL1        0.5753
     46 F         138.2948  137.3366  165.7357 F       1  UNL1       -0.1328
     47 F         137.3932  139.0034  166.6890 F       1  UNL1       -0.1328
     48 F         140.1046  138.4263  165.5425 F       1  UNL1       -0.1328
@<TRIPOS>BOND
     1    20    21    1
     2    21    22    1
     3    21    11    1
     4    11    12   ar
     5    12    13   ar
     6    13    23    1
     7    23    24    3
     8    13    14   ar
     9    14    15   ar
    10    15    16   ar
    11    16    17   ar
    12    17     5    1
    13     5     6   ar
    14     6     7   ar
    15     7     8   ar
    16     8     1    1
    17     1     2    2
    18     1     3   am
    19     3    25    1
    20    25    26    1
    21    26    27    1
    22    27    28    1
    23    28    32    1
    24    32    33   ar
    25    33    34   ar
    26    34    35   ar
    27    35    38    1
    28    38    39   ar
    29    39    40   ar
    30    40    41   ar
    31    41    42   ar
    32    42    43   ar
    33    43    44    1
    34    44    45    1
    35    45    46    1
    36    45    47    1
    37    45    48    1
    38    35    36   ar
    39    36    37   ar
    40    28    29   am
    41    29    30    2
    42    29    31    1
    43     8     9   ar
    44     9    10   ar
    45    17    18   ar
    46    18    19   ar
    47    19    11   ar
    48    19    15   ar
    49    10     5   ar
    50    31    26    1
    51    37    32   ar
    52    43    38   ar
    53     3     4    1
@<TRIPOS>MOLECULE
*****
 48 53 0 0 0
SMALL
GASTEIGER

@<TRIPOS>ATOM
      1 C         141.1454  139.6248  157.2532 C.2     1  UNL1        0.2459
      2 O         142.0826  140.7297  156.8648 O.2     1  UNL1       -0.2701
      3 N         139.8598  139.9444  157.9569 N.am    1  UNL1       -0.2975
      4 H         139.2447  139.2191  158.2117 H       1  UNL1        0.1499
      5 C         142.1907  135.3514  156.3069 C.ar    1  UNL1        0.0536
      6 C         142.9713  136.1023  157.3446 C.ar    1  UNL1        0.0048
      7 C         142.6228  137.5268  157.6599 C.ar    1  UNL1        0.0047
      8 C         141.4938  138.2004  156.9377 C.ar    1  UNL1        0.0534
      9 C         140.7132  137.4494  155.9001 C.ar    1  UNL1        0.0047
     10 C         141.0616  136.0249  155.5847 C.ar    1  UNL1        0.0048
     11 C         141.9572  130.2451  154.8218 C.ar    1  UNL1        0.0143
     12 C         142.9687  129.1396  154.7542 C.ar    1  UNL1        0.0091
     13 C         144.3883  129.3957  155.1653 C.ar    1  UNL1        0.0698
     14 C         144.7965  130.7575  155.6441 C.ar    1  UNL1        0.0326
     15 C         143.7849  131.8630  155.7117 C.ar    1  UNL1        0.1192
     16 N         143.8923  133.2969  156.1387 N.ar    1  UNL1       -0.2082
     17 C         142.5391  133.9269  155.9915 C.ar    1  UNL1        0.2296
     18 O         141.5953  132.8824  155.4735 O.2     1  UNL1       -0.4349
     19 C         142.3653  131.6068  155.3005 C.ar    1  UNL1        0.1607
     20 C         139.9670  130.6850  153.2107 C.3     1  UNL1        0.0048
     21 C         140.5376  129.9889  154.4107 C.3     1  UNL1        0.0254
     22 C         139.6885  129.0366  155.1996 C.3     1  UNL1        0.0048
     23 C         145.3999  128.2901  155.0977 C.1     1  UNL1        0.1005
     24 N         146.4114  127.1846  155.0301 N.1     1  UNL1       -0.1908
     25 C         139.5114  141.3688  158.2723 C.3     1  UNL1        0.1355
     26 C         139.2381  141.7780  159.6893 C.3     1  UNL1        0.2101
     27 C         139.7684  141.1034  160.9196 C.3     1  UNL1        0.1483
     28 N         139.2446  141.8420  162.1155 N.am    1  UNL1       -0.2059
     29 C         138.3906  142.9732  161.6242 C.2     1  UNL1        0.4098
     30 O         137.6676  143.9690  162.4818 O.2     1  UNL1       -0.2258
     31 O         138.3867  142.9335  160.1247 O.3     1  UNL1       -0.4345
     32 C         139.5255  141.5082  163.5506 C.ar    1  UNL1        0.1400
     33 C         139.2584  140.1247  164.0650 C.ar    1  UNL1        0.0348
     34 C         139.5392  139.7909  165.5002 C.ar    1  UNL1        0.0045
     35 C         140.0872  140.8405  166.4210 C.ar    1  UNL1        0.0222
     36 C         140.3542  142.2241  165.9065 C.ar    1  UNL1        0.1004
     37 N         140.0734  142.5579  164.4715 N.ar    1  UNL1       -0.2287
     38 C         140.3680  140.5067  167.8561 C.ar    1  UNL1        0.0358
     39 C         139.2411  140.4325  168.8432 C.ar    1  UNL1        0.0031
     40 C         139.5220  140.0987  170.2784 C.ar    1  UNL1        0.0002
     41 C         140.9297  139.8391  170.7264 C.ar    1  UNL1        0.0031
     42 C         142.0567  139.9133  169.7393 C.ar    1  UNL1        0.0372
     43 C         141.7758  140.2471  168.3041 C.ar    1  UNL1        0.1468
     44 O         142.9027  140.3213  167.3169 O.3     1  UNL1       -0.4045
     45 C         143.1546  139.1782  166.3788 C.3     1  UNL1        0.5753
     46 F         143.4064  138.0351  165.4408 F       1  UNL1       -0.1328
     47 F         142.9042  140.0831  165.2090 F       1  UNL1       -0.1328
     48 F         143.4049  138.2734  167.5487 F       1  UNL1       -0.1328
@<TRIPOS>BOND
     1    20    21    1
     2    21    22    1
     3    21    11    1
     4    11    12   ar
     5    12    13   ar
     6    13    23    1
     7    23    24    3
     8    13    14   ar
     9    14    15   ar
    10    15    16   ar
    11    16    17   ar
    12    17     5    1
    13     5     6   ar
    14     6     7   ar
    15     7     8   ar
    16     8     1    1
    17     1     2    2
    18     1     3   am
    19     3    25    1
    20    25    26    1
    21    26    27    1
    22    27    28    1
    23    28    32    1
    24    32    33   ar
    25    33    34   ar
    26    34    35   ar
    27    35    38    1
    28    38    39   ar
    29    39    40   ar
    30    40    41   ar
    31    41    42   ar
    32    42    43   ar
    33    43    44    1
    34    44    45    1
    35    45    46    1
    36    45    47    1
    37    45    48    1
    38    35    36   ar
    39    36    37   ar
    40    28    29   am
    41    29    30    2
    42    29    31    1
    43     8     9   ar
    44     9    10   ar
    45    17    18   ar
    46    18    19   ar
    47    19    11   ar
    48    19    15   ar
    49    10     5   ar
    50    31    26    1
    51    37    32   ar
    52    43    38   ar
    53     3     4    1
@<TRIPOS>MOLECULE
*****
 48 53 0 0 0
SMALL
GASTEIGER

@<TRIPOS>ATOM
      1 C         143.5973  139.3676  156.1540 C.2     1  UNL1        0.2459
      2 O         144.9897  139.7853  156.5235 O.2     1  UNL1       -0.2701
      3 N         142.5419  140.4058  155.9125 N.am    1  UNL1       -0.2975
      4 H         141.6280  140.1315  155.6700 H       1  UNL1        0.1499
      5 C         142.5861  134.9994  155.7704 C.ar    1  UNL1        0.0536
      6 C         143.9742  135.4777  155.4632 C.ar    1  UNL1        0.0048
      7 C         144.3112  136.9338  155.5911 C.ar    1  UNL1        0.0047
      8 C         143.2602  137.9115  156.0262 C.ar    1  UNL1        0.0534
      9 C         141.8721  137.4333  156.3333 C.ar    1  UNL1        0.0047
     10 C         141.5351  135.9772  156.2054 C.ar    1  UNL1        0.0048
     11 C         142.7072  129.6852  156.0514 C.ar    1  UNL1        0.0143
     12 C         141.7809  128.6026  155.5825 C.ar    1  UNL1        0.0091
     13 C         140.5123  128.9592  154.8662 C.ar    1  UNL1        0.0698
     14 C         140.1697  130.3985  154.6187 C.ar    1  UNL1        0.0326
     15 C         141.0960  131.4811  155.0876 C.ar    1  UNL1        0.1192
     16 N         141.0245  132.9761  154.9878 N.ar    1  UNL1       -0.2082
     17 C         142.2490  133.5434  155.6425 C.ar    1  UNL1        0.2296
     18 O         143.0774  132.3991  156.1469 O.2     1  UNL1       -0.4349
     19 C         142.3647  131.1245  155.8039 C.ar    1  UNL1        0.1607
     20 C         145.0117  128.4860  156.0842 C.3     1  UNL1        0.0048
     21 C         143.9759  129.3286  156.7677 C.3     1  UNL1        0.0254
     22 C         144.2089  129.8147  158.1676 C.3     1  UNL1        0.0048
     23 C         139.5859  127.8765  154.3972 C.1     1  UNL1        0.1005
     24 N         138.6596  126.7938  153.9284 N.1     1  UNL1       -0.1908
     25 C         142.8790  141.8618  156.0404 C.3     1  UNL1        0.1355
     26 C         142.5759  142.5927  157.3147 C.3     1  UNL1        0.2101
     27 C         142.6495  142.0194  158.6988 C.3     1  UNL1        0.1483
     28 N         142.2651  143.0975  159.6682 N.am    1  UNL1       -0.2059
     29 C         141.9539  144.3373  158.8831 C.2     1  UNL1        0.4098
     30 O         141.5258  145.6573  159.4527 O.2     1  UNL1       -0.2258
     31 O         142.1460  144.0252  157.4286 O.3     1  UNL1       -0.4345
     32 C         142.2027  142.9602  161.1606 C.ar    1  UNL1        0.1400
     33 C         142.5596  144.1244  162.0364 C.ar    1  UNL1        0.0348
     34 C         142.4973  143.9870  163.5289 C.ar    1  UNL1        0.0045
     35 C         142.0781  142.6854  164.1454 C.ar    1  UNL1        0.0222
     36 C         141.7212  141.5212  163.2694 C.ar    1  UNL1        0.1004
     37 N         141.7836  141.6586  161.7771 N.ar    1  UNL1       -0.2287
     38 C         142.0158  142.5481  165.6377 C.ar    1  UNL1        0.0358
     39 C         143.2820  142.4398  166.4344 C.ar    1  UNL1        0.0031
     40 C         143.2197  142.3024  167.9269 C.ar    1  UNL1        0.0002
     41 C         141.8911  142.2734  168.6225 C.ar    1  UNL1        0.0031
     42 C         140.6248  142.3817  167.8258 C.ar    1  UNL1        0.0372
     43 C         140.6872  142.5191  166.3334 C.ar    1  UNL1        0.1468
     44 O         139.4209  142.6274  165.5367 O.3     1  UNL1       -0.4045
     45 C         139.0346  143.9376  164.9166 C.3     1  UNL1        0.5753
     46 F         138.6484  145.2477  164.2966 F       1  UNL1       -0.1328
     47 F         138.9138  143.2690  163.5793 F       1  UNL1       -0.1328
     48 F         139.1555  144.6061  166.2539 F       1  UNL1       -0.1328
@<TRIPOS>BOND
     1    20    21    1
     2    21    22    1
     3    21    11    1
     4    11    12   ar
     5    12    13   ar
     6    13    23    1
     7    23    24    3
     8    13    14   ar
     9    14    15   ar
    10    15    16   ar
    11    16    17   ar
    12    17     5    1
    13     5     6   ar
    14     6     7   ar
    15     7     8   ar
    16     8     1    1
    17     1     2    2
    18     1     3   am
    19     3    25    1
    20    25    26    1
    21    26    27    1
    22    27    28    1
    23    28    32    1
    24    32    33   ar
    25    33    34   ar
    26    34    35   ar
    27    35    38    1
    28    38    39   ar
    29    39    40   ar
    30    40    41   ar
    31    41    42   ar
    32    42    43   ar
    33    43    44    1
    34    44    45    1
    35    45    46    1
    36    45    47    1
    37    45    48    1
    38    35    36   ar
    39    36    37   ar
    40    28    29   am
    41    29    30    2
    42    29    31    1
    43     8     9   ar
    44     9    10   ar
    45    17    18   ar
    46    18    19   ar
    47    19    11   ar
    48    19    15   ar
    49    10     5   ar
    50    31    26    1
    51    37    32   ar
    52    43    38   ar
    53     3     4    1
@<TRIPOS>MOLECULE
*****
 48 53 0 0 0
SMALL
GASTEIGER

@<TRIPOS>ATOM
      1 C         141.1434  139.5578  156.7563 C.2     1  UNL1        0.2459
      2 O         139.7071  139.9859  156.8174 O.2     1  UNL1       -0.2701
      3 N         142.2361  140.5715  156.9249 N.am    1  UNL1       -0.2975
      4 H         143.1788  140.2905  156.8847 H       1  UNL1        0.1499
      5 C         142.1741  135.2320  156.0668 C.ar    1  UNL1        0.0536
      6 C         140.9990  135.8442  155.3637 C.ar    1  UNL1        0.0048
      7 C         140.6555  137.2862  155.5936 C.ar    1  UNL1        0.0047
      8 C         141.4870  138.1159  156.5265 C.ar    1  UNL1        0.0534
      9 C         142.6621  137.5036  157.2295 C.ar    1  UNL1        0.0047
     10 C         143.0056  136.0616  156.9997 C.ar    1  UNL1        0.0048
     11 C         141.9126  130.0366  154.9383 C.ar    1  UNL1        0.0143
     12 C         142.9258  128.9308  154.9123 C.ar    1  UNL1        0.0091
     13 C         144.3570  129.2166  155.2583 C.ar    1  UNL1        0.0698
     14 C         144.7752  130.6084  155.6303 C.ar    1  UNL1        0.0326
     15 C         143.7620  131.7141  155.6564 C.ar    1  UNL1        0.1192
     16 N         143.8776  133.1738  155.9818 N.ar    1  UNL1       -0.2082
     17 C         142.5177  133.7901  155.8370 C.ar    1  UNL1        0.2296
     18 O         141.5617  132.7112  155.4220 O.2     1  UNL1       -0.4349
     19 C         142.3307  131.4282  155.3103 C.ar    1  UNL1        0.1607
     20 C         139.7299  128.6834  155.3313 C.3     1  UNL1        0.0048
     21 C         140.4814  129.7506  154.5923 C.3     1  UNL1        0.0254
     22 C         139.8016  130.5321  153.5071 C.3     1  UNL1        0.0048
     23 C         145.3703  128.1108  155.2323 C.1     1  UNL1        0.1005
     24 N         146.3834  127.0050  155.2063 N.1     1  UNL1       -0.1908
     25 C         141.8925  142.0134  157.1547 C.3     1  UNL1        0.1355
     26 C         141.5948  142.5017  158.5414 C.3     1  UNL1        0.2101
     27 C         141.2714  141.6430  159.7280 C.3     1  UNL1        0.1483
     28 N         141.0450  142.5450  160.9049 N.am    1  UNL1       -0.2059
     29 C         141.2285  143.9612  160.4457 C.2     1  UNL1        0.4098
     30 O         141.0955  145.1885  161.2977 O.2     1  UNL1       -0.2258
     31 O         141.5683  143.9343  158.9849 O.3     1  UNL1       -0.4345
     32 C         140.6962  142.1076  162.2967 C.ar    1  UNL1        0.1400
     33 C         139.4132  142.5626  162.9265 C.ar    1  UNL1        0.0348
     34 C         139.0645  142.1253  164.3184 C.ar    1  UNL1        0.0045
     35 C         139.9988  141.2329  165.0804 C.ar    1  UNL1        0.0222
     36 C         141.2819  140.7779  164.4504 C.ar    1  UNL1        0.1004
     37 N         141.6306  141.2152  163.0587 N.ar    1  UNL1       -0.2287
     38 C         139.6501  140.7956  166.4721 C.ar    1  UNL1        0.0358
     39 C         138.6227  139.7238  166.6862 C.ar    1  UNL1        0.0031
     40 C         138.2740  139.2865  168.0780 C.ar    1  UNL1        0.0002
     41 C         138.9527  139.9209  169.2557 C.ar    1  UNL1        0.0031
     42 C         139.9801  140.9926  169.0416 C.ar    1  UNL1        0.0372
     43 C         140.3288  141.4299  167.6498 C.ar    1  UNL1        0.1468
     44 O         141.3562  142.5016  167.4357 O.3     1  UNL1       -0.4045
     45 C         142.6562  142.4544  168.1826 C.3     1  UNL1        0.5753
     46 F         143.9561  142.4072  168.9295 F       1  UNL1       -0.1328
     47 F         143.2737  141.6766  167.0585 F       1  UNL1       -0.1328
     48 F         142.0386  143.2322  169.3066 F       1  UNL1       -0.1328
@<TRIPOS>BOND
     1    20    21    1
     2    21    22    1
     3    21    11    1
     4    11    12   ar
     5    12    13   ar
     6    13    23    1
     7    23    24    3
     8    13    14   ar
     9    14    15   ar
    10    15    16   ar
    11    16    17   ar
    12    17     5    1
    13     5     6   ar
    14     6     7   ar
    15     7     8   ar
    16     8     1    1
    17     1     2    2
    18     1     3   am
    19     3    25    1
    20    25    26    1
    21    26    27    1
    22    27    28    1
    23    28    32    1
    24    32    33   ar
    25    33    34   ar
    26    34    35   ar
    27    35    38    1
    28    38    39   ar
    29    39    40   ar
    30    40    41   ar
    31    41    42   ar
    32    42    43   ar
    33    43    44    1
    34    44    45    1
    35    45    46    1
    36    45    47    1
    37    45    48    1
    38    35    36   ar
    39    36    37   ar
    40    28    29   am
    41    29    30    2
    42    29    31    1
    43     8     9   ar
    44     9    10   ar
    45    17    18   ar
    46    18    19   ar
    47    19    11   ar
    48    19    15   ar
    49    10     5   ar
    50    31    26    1
    51    37    32   ar
    52    43    38   ar
    53     3     4    1
@<TRIPOS>MOLECULE
*****
 48 53 0 0 0
SMALL
GASTEIGER

@<TRIPOS>ATOM
      1 C         139.2387  139.5490  155.9816 C.2     1  UNL1        0.2459
      2 O         140.1754  139.9032  154.8649 O.2     1  UNL1       -0.2701
      3 N         139.7682  138.9067  157.2294 N.am    1  UNL1       -0.2975
      4 H         139.1534  138.6742  157.9623 H       1  UNL1        0.1499
      5 C         134.8400  140.4131  155.5880 C.ar    1  UNL1        0.0536
      6 C         135.5138  139.4936  154.6131 C.ar    1  UNL1        0.0048
      7 C         136.9801  139.2056  154.7444 C.ar    1  UNL1        0.0047
      8 C         137.7725  139.8370  155.8504 C.ar    1  UNL1        0.0534
      9 C         137.0986  140.7565  156.8253 C.ar    1  UNL1        0.0047
     10 C         135.6324  141.0445  156.6941 C.ar    1  UNL1        0.0048
     11 C         129.5474  140.3243  156.1495 C.ar    1  UNL1        0.0143
     12 C         128.4278  141.1086  155.5320 C.ar    1  UNL1        0.0091
     13 C         128.7280  142.1780  154.5241 C.ar    1  UNL1        0.0698
     14 C         130.1480  142.4634  154.1336 C.ar    1  UNL1        0.0326
     15 C         131.2676  141.6792  154.7512 C.ar    1  UNL1        0.1192
     16 N         132.7549  141.7358  154.5644 N.ar    1  UNL1       -0.2082
     17 C         133.3737  140.7012  155.4569 C.ar    1  UNL1        0.2296
     18 O         132.2690  140.0052  156.1953 O.2     1  UNL1       -0.4349
     19 C         130.9673  140.6096  155.7591 C.ar    1  UNL1        0.1607
     20 C         129.4874  137.8140  156.8163 C.3     1  UNL1        0.0048
     21 C         129.2471  139.2548  157.1574 C.3     1  UNL1        0.0254
     22 C         128.7066  139.6261  158.5066 C.3     1  UNL1        0.0048
     23 C         127.6083  142.9623  153.9065 C.1     1  UNL1        0.1005
     24 N         126.4887  143.7466  153.2890 N.1     1  UNL1       -0.1908
     25 C         141.2344  138.6186  157.3605 C.3     1  UNL1        0.1355
     26 C         141.8514  138.4725  158.7199 C.3     1  UNL1        0.2101
     27 C         141.2511  138.9339  160.0148 C.3     1  UNL1        0.1483
     28 N         142.2057  138.5859  161.1183 N.am    1  UNL1       -0.2059
     29 C         143.3960  137.9094  160.5054 C.2     1  UNL1        0.4098
     30 O         144.5947  137.3936  161.2449 O.2     1  UNL1       -0.2258
     31 O         143.1769  137.8393  159.0231 O.3     1  UNL1       -0.4345
     32 C         142.0052  138.8654  162.5783 C.ar    1  UNL1        0.1400
     33 C         141.7934  140.2733  163.0503 C.ar    1  UNL1        0.0348
     34 C         141.5929  140.5527  164.5104 C.ar    1  UNL1        0.0045
     35 C         141.6043  139.4242  165.4985 C.ar    1  UNL1        0.0222
     36 C         141.8161  138.0163  165.0264 C.ar    1  UNL1        0.1004
     37 N         142.0166  137.7368  163.5664 N.ar    1  UNL1       -0.2287
     38 C         141.4038  139.7036  166.9584 C.ar    1  UNL1        0.0358
     39 C         142.5904  139.8401  167.8658 C.ar    1  UNL1        0.0031
     40 C         142.3900  140.1196  169.3258 C.ar    1  UNL1        0.0002
     41 C         141.0029  140.2625  169.8785 C.ar    1  UNL1        0.0031
     42 C         139.8163  140.1260  168.9712 C.ar    1  UNL1        0.0372
     43 C         140.0167  139.8466  167.5112 C.ar    1  UNL1        0.1468
     44 O         138.8301  139.7101  166.6038 O.3     1  UNL1       -0.4045
     45 C         138.0414  138.4342  166.5873 C.3     1  UNL1        0.5753
     46 F         137.2528  137.1584  166.5706 F       1  UNL1       -0.1328
     47 F         137.4542  138.7799  167.9235 F       1  UNL1       -0.1328
     48 F         138.6287  138.0886  165.2510 F       1  UNL1       -0.1328
@<TRIPOS>BOND
     1    20    21    1
     2    21    22    1
     3    21    11    1
     4    11    12   ar
     5    12    13   ar
     6    13    23    1
     7    23    24    3
     8    13    14   ar
     9    14    15   ar
    10    15    16   ar
    11    16    17   ar
    12    17     5    1
    13     5     6   ar
    14     6     7   ar
    15     7     8   ar
    16     8     1    1
    17     1     2    2
    18     1     3   am
    19     3    25    1
    20    25    26    1
    21    26    27    1
    22    27    28    1
    23    28    32    1
    24    32    33   ar
    25    33    34   ar
    26    34    35   ar
    27    35    38    1
    28    38    39   ar
    29    39    40   ar
    30    40    41   ar
    31    41    42   ar
    32    42    43   ar
    33    43    44    1
    34    44    45    1
    35    45    46    1
    36    45    47    1
    37    45    48    1
    38    35    36   ar
    39    36    37   ar
    40    28    29   am
    41    29    30    2
    42    29    31    1
    43     8     9   ar
    44     9    10   ar
    45    17    18   ar
    46    18    19   ar
    47    19    11   ar
    48    19    15   ar
    49    10     5   ar
    50    31    26    1
    51    37    32   ar
    52    43    38   ar
    53     3     4    1
@<TRIPOS>MOLECULE
*****
 48 53 0 0 0
SMALL
GASTEIGER

@<TRIPOS>ATOM
      1 C         142.6283  142.4977  159.8284 C.2     1  UNL1        0.2459
      2 O         141.7052  143.0483  158.7822 O.2     1  UNL1       -0.2701
      3 N         144.0629  142.2184  159.4910 N.am    1  UNL1       -0.2975
      4 H         144.6688  141.8570  160.1777 H       1  UNL1        0.1499
      5 C         141.0934  141.6834  163.9795 C.ar    1  UNL1        0.0536
      6 C         140.1642  141.5940  162.8054 C.ar    1  UNL1        0.0048
      7 C         140.6759  141.8655  161.4217 C.ar    1  UNL1        0.0047
      8 C         142.1167  142.2263  161.2121 C.ar    1  UNL1        0.0534
      9 C         143.0459  142.3156  162.3862 C.ar    1  UNL1        0.0047
     10 C         142.5342  142.0442  163.7699 C.ar    1  UNL1        0.0048
     11 C         140.2299  141.8495  169.2294 C.ar    1  UNL1        0.0143
     12 C         139.3478  141.0694  170.1584 C.ar    1  UNL1        0.0091
     13 C         138.4695  139.9792  169.6199 C.ar    1  UNL1        0.0698
     14 C         138.4733  139.6691  168.1522 C.ar    1  UNL1        0.0326
     15 C         139.3555  140.4493  167.2232 C.ar    1  UNL1        0.1192
     16 N         139.5706  140.3705  165.7408 N.ar    1  UNL1       -0.2082
     17 C         140.5819  141.4120  165.3632 C.ar    1  UNL1        0.2296
     18 O         140.9918  142.1345  166.6122 O.2     1  UNL1       -0.4349
     19 C         140.2338  141.5395  167.7618 C.ar    1  UNL1        0.1607
     20 C         140.5406  144.3054  170.0181 C.3     1  UNL1        0.0048
     21 C         141.1083  142.9397  169.7679 C.3     1  UNL1        0.0254
     22 C         142.5543  142.6642  170.0564 C.3     1  UNL1        0.0048
     23 C         137.5872  139.1991  170.5490 C.1     1  UNL1        0.1005
     24 N         136.7051  138.4190  171.4780 N.1     1  UNL1       -0.1908
     25 C         144.5745  142.4899  158.1073 C.3     1  UNL1        0.1355
     26 C         144.4129  141.4568  157.0318 C.3     1  UNL1        0.2101
     27 C         143.8287  140.0863  157.2065 C.3     1  UNL1        0.1483
     28 N         143.8619  139.3953  155.8756 N.am    1  UNL1       -0.2059
     29 C         144.4666  140.3387  154.8783 C.2     1  UNL1        0.4098
     30 O         144.6913  140.0574  153.4222 O.2     1  UNL1       -0.2258
     31 O         144.8071  141.6127  155.5931 O.3     1  UNL1       -0.4345
     32 C         143.3757  138.0049  155.5916 C.ar    1  UNL1        0.1400
     33 C         144.3536  136.9293  155.2220 C.ar    1  UNL1        0.0348
     34 C         143.8674  135.5389  154.9381 C.ar    1  UNL1        0.0045
     35 C         142.4033  135.2242  155.0237 C.ar    1  UNL1        0.0222
     36 C         141.4254  136.3000  155.3933 C.ar    1  UNL1        0.1004
     37 N         141.9116  137.6902  155.6773 N.ar    1  UNL1       -0.2287
     38 C         141.9172  133.8340  154.7398 C.ar    1  UNL1        0.0358
     39 C         141.2957  133.5131  153.4129 C.ar    1  UNL1        0.0031
     40 C         140.8095  132.1228  153.1289 C.ar    1  UNL1        0.0002
     41 C         140.9448  131.0533  154.1719 C.ar    1  UNL1        0.0031
     42 C         141.5663  131.3742  155.4989 C.ar    1  UNL1        0.0372
     43 C         142.0525  132.7645  155.7828 C.ar    1  UNL1        0.1468
     44 O         142.6739  133.0854  157.1097 O.3     1  UNL1       -0.4045
     45 C         144.1153  132.7554  157.3623 C.3     1  UNL1        0.5753
     46 F         145.5566  132.4256  157.6149 F       1  UNL1       -0.1328
     47 F         143.7929  131.2923  157.2912 F       1  UNL1       -0.1328
     48 F         144.4377  134.2186  157.4334 F       1  UNL1       -0.1328
@<TRIPOS>BOND
     1    20    21    1
     2    21    22    1
     3    21    11    1
     4    11    12   ar
     5    12    13   ar
     6    13    23    1
     7    23    24    3
     8    13    14   ar
     9    14    15   ar
    10    15    16   ar
    11    16    17   ar
    12    17     5    1
    13     5     6   ar
    14     6     7   ar
    15     7     8   ar
    16     8     1    1
    17     1     2    2
    18     1     3   am
    19     3    25    1
    20    25    26    1
    21    26    27    1
    22    27    28    1
    23    28    32    1
    24    32    33   ar
    25    33    34   ar
    26    34    35   ar
    27    35    38    1
    28    38    39   ar
    29    39    40   ar
    30    40    41   ar
    31    41    42   ar
    32    42    43   ar
    33    43    44    1
    34    44    45    1
    35    45    46    1
    36    45    47    1
    37    45    48    1
    38    35    36   ar
    39    36    37   ar
    40    28    29   am
    41    29    30    2
    42    29    31    1
    43     8     9   ar
    44     9    10   ar
    45    17    18   ar
    46    18    19   ar
    47    19    11   ar
    48    19    15   ar
    49    10     5   ar
    50    31    26    1
    51    37    32   ar
    52    43    38   ar
    53     3     4    1
@<TRIPOS>MOLECULE
*****
 48 53 0 0 0
SMALL
GASTEIGER

@<TRIPOS>ATOM
      1 C         138.7578  142.9236  157.8719 C.2     1  UNL1        0.2459
      2 O         139.1673  144.1615  157.1304 O.2     1  UNL1       -0.2701
      3 N         137.8647  141.9150  157.2121 N.am    1  UNL1       -0.2975
      4 H         137.5960  141.1025  157.6988 H       1  UNL1        0.1499
      5 C         140.2087  142.2355  162.0757 C.ar    1  UNL1        0.0536
      6 C         140.4919  143.5383  161.3883 C.ar    1  UNL1        0.0048
      7 C         140.0083  143.7676  159.9870 C.ar    1  UNL1        0.0047
      8 C         139.2414  142.6942  159.2731 C.ar    1  UNL1        0.0534
      9 C         138.9581  141.3914  159.9605 C.ar    1  UNL1        0.0047
     10 C         139.4418  141.1621  161.3618 C.ar    1  UNL1        0.0048
     11 C         142.7601  140.3635  166.3559 C.ar    1  UNL1        0.0143
     12 C         142.7265  140.7104  167.8148 C.ar    1  UNL1        0.0091
     13 C         141.8217  141.8013  168.3057 C.ar    1  UNL1        0.0698
     14 C         140.9504  142.5456  167.3376 C.ar    1  UNL1        0.0326
     15 C         140.9840  142.1987  165.8787 C.ar    1  UNL1        0.1192
     16 N         140.2445  142.7540  164.6977 N.ar    1  UNL1       -0.2082
     17 C         140.6923  142.0062  163.4770 C.ar    1  UNL1        0.2296
     18 O         141.7086  140.9887  163.9034 O.2     1  UNL1       -0.4349
     19 C         141.8889  141.1077  165.3878 C.ar    1  UNL1        0.1607
     20 C         143.6358  137.9229  166.5190 C.3     1  UNL1        0.0048
     21 C         143.6650  139.2725  165.8650 C.3     1  UNL1        0.0254
     22 C         144.5990  139.5311  164.7200 C.3     1  UNL1        0.0048
     23 C         141.7881  142.1482  169.7647 C.1     1  UNL1        0.1005
     24 N         141.7545  142.4951  171.2237 N.1     1  UNL1       -0.1908
     25 C         137.3811  142.1444  155.8109 C.3     1  UNL1        0.1355
     26 C         135.9788  141.7715  155.4310 C.3     1  UNL1        0.2101
     27 C         135.0466  140.9130  156.2335 C.3     1  UNL1        0.1483
     28 N         133.7541  140.8025  155.4804 N.am    1  UNL1       -0.2059
     29 C         133.8875  141.5927  154.2123 C.2     1  UNL1        0.4098
     30 O         132.8314  141.7554  153.1597 O.2     1  UNL1       -0.2258
     31 O         135.2625  142.1915  154.1819 O.3     1  UNL1       -0.4345
     32 C         132.5412  140.0364  155.9184 C.ar    1  UNL1        0.1400
     33 C         131.1791  140.6518  155.7913 C.ar    1  UNL1        0.0348
     34 C         129.9662  139.8856  156.2293 C.ar    1  UNL1        0.0045
     35 C         130.1153  138.5041  156.7943 C.ar    1  UNL1        0.0222
     36 C         131.4774  137.8888  156.9213 C.ar    1  UNL1        0.1004
     37 N         132.6903  138.6549  156.4834 N.ar    1  UNL1       -0.2287
     38 C         128.9024  137.7381  157.2322 C.ar    1  UNL1        0.0358
     39 C         128.2553  136.7596  156.2974 C.ar    1  UNL1        0.0031
     40 C         127.0424  135.9935  156.7354 C.ar    1  UNL1        0.0002
     41 C         126.4764  136.2058  158.1082 C.ar    1  UNL1        0.0031
     42 C         127.1235  137.1842  159.0430 C.ar    1  UNL1        0.0372
     43 C         128.3365  137.9504  158.6051 C.ar    1  UNL1        0.1468
     44 O         128.9835  138.9288  159.5399 O.3     1  UNL1       -0.4045
     45 C         128.1440  139.9309  160.2756 C.3     1  UNL1        0.5753
     46 F         127.3046  140.9330  161.0112 F       1  UNL1       -0.1328
     47 F         128.2633  139.1123  161.5267 F       1  UNL1       -0.1328
     48 F         128.0249  140.7496  159.0244 F       1  UNL1       -0.1328
@<TRIPOS>BOND
     1    20    21    1
     2    21    22    1
     3    21    11    1
     4    11    12   ar
     5    12    13   ar
     6    13    23    1
     7    23    24    3
     8    13    14   ar
     9    14    15   ar
    10    15    16   ar
    11    16    17   ar
    12    17     5    1
    13     5     6   ar
    14     6     7   ar
    15     7     8   ar
    16     8     1    1
    17     1     2    2
    18     1     3   am
    19     3    25    1
    20    25    26    1
    21    26    27    1
    22    27    28    1
    23    28    32    1
    24    32    33   ar
    25    33    34   ar
    26    34    35   ar
    27    35    38    1
    28    38    39   ar
    29    39    40   ar
    30    40    41   ar
    31    41    42   ar
    32    42    43   ar
    33    43    44    1
    34    44    45    1
    35    45    46    1
    36    45    47    1
    37    45    48    1
    38    35    36   ar
    39    36    37   ar
    40    28    29   am
    41    29    30    2
    42    29    31    1
    43     8     9   ar
    44     9    10   ar
    45    17    18   ar
    46    18    19   ar
    47    19    11   ar
    48    19    15   ar
    49    10     5   ar
    50    31    26    1
    51    37    32   ar
    52    43    38   ar
    53     3     4    1
@<TRIPOS>MOLECULE
*****
 48 53 0 0 0
SMALL
GASTEIGER

@<TRIPOS>ATOM
      1 C         139.2059  143.0454  158.2192 C.2     1  UNL1        0.2459
      2 O         139.2706  144.4430  157.6784 O.2     1  UNL1       -0.2701
      3 N         138.7054  141.9282  157.3525 N.am    1  UNL1       -0.2975
      4 H         138.6629  141.0109  157.7075 H       1  UNL1        0.1499
      5 C         140.5131  142.2044  162.4423 C.ar    1  UNL1        0.0536
      6 C         139.0565  142.1651  162.0862 C.ar    1  UNL1        0.0048
      7 C         138.6208  142.4454  160.6784 C.ar    1  UNL1        0.0047
      8 C         139.6416  142.7651  159.6269 C.ar    1  UNL1        0.0534
      9 C         141.0982  142.8044  159.9830 C.ar    1  UNL1        0.0047
     10 C         141.5339  142.5241  161.3908 C.ar    1  UNL1        0.0048
     11 C         142.8595  140.1253  166.7441 C.ar    1  UNL1        0.0143
     12 C         142.8055  140.4448  168.2087 C.ar    1  UNL1        0.0091
     13 C         141.9430  141.5694  168.6997 C.ar    1  UNL1        0.0698
     14 C         141.1342  142.3745  167.7262 C.ar    1  UNL1        0.0326
     15 C         141.1881  142.0550  166.2616 C.ar    1  UNL1        0.1192
     16 N         140.5071  142.6692  165.0746 N.ar    1  UNL1       -0.2082
     17 C         140.9489  141.9241  163.8500 C.ar    1  UNL1        0.2296
     18 O         141.9029  140.8495  164.2801 O.2     1  UNL1       -0.4349
     19 C         142.0508  140.9304  165.7706 C.ar    1  UNL1        0.1607
     20 C         143.7735  137.7082  167.0126 C.3     1  UNL1        0.0048
     21 C         143.7221  139.0006  166.2531 C.3     1  UNL1        0.0254
     22 C         144.5334  139.1685  165.0026 C.3     1  UNL1        0.0048
     23 C         141.8890  141.8889  170.1644 C.1     1  UNL1        0.1005
     24 N         141.8351  142.2085  171.6289 N.1     1  UNL1       -0.1908
     25 C         138.2696  142.2085  155.9448 C.3     1  UNL1        0.1355
     26 C         136.8935  141.8176  155.4937 C.3     1  UNL1        0.2101
     27 C         135.8690  141.0930  156.3155 C.3     1  UNL1        0.1483
     28 N         134.6426  140.9101  155.4714 N.am    1  UNL1       -0.2059
     29 C         134.9092  141.5217  154.1279 C.2     1  UNL1        0.4098
     30 O         133.9526  141.5649  152.9733 O.2     1  UNL1       -0.2258
     31 O         136.3004  142.0825  154.1418 O.3     1  UNL1       -0.4345
     32 C         133.3726  140.2344  155.8962 C.ar    1  UNL1        0.1400
     33 C         132.0733  140.9824  155.8498 C.ar    1  UNL1        0.0348
     34 C         130.8032  140.3066  156.2746 C.ar    1  UNL1        0.0045
     35 C         130.8326  138.8828  156.7457 C.ar    1  UNL1        0.0222
     36 C         132.1320  138.1349  156.7921 C.ar    1  UNL1        0.1004
     37 N         133.4019  138.8106  156.3674 N.ar    1  UNL1       -0.2287
     38 C         129.5626  138.2071  157.1705 C.ar    1  UNL1        0.0358
     39 C         129.3091  137.9318  158.6230 C.ar    1  UNL1        0.0031
     40 C         128.0391  137.2560  159.0478 C.ar    1  UNL1        0.0002
     41 C         127.0225  136.8556  158.0200 C.ar    1  UNL1        0.0031
     42 C         127.2761  137.1310  156.5674 C.ar    1  UNL1        0.0372
     43 C         128.5461  137.8067  156.1427 C.ar    1  UNL1        0.1468
     44 O         128.7996  138.0821  154.6901 O.3     1  UNL1       -0.4045
     45 C         128.0689  139.1950  153.9990 C.3     1  UNL1        0.5753
     46 F         127.3383  140.3079  153.3079 F       1  UNL1       -0.1328
     47 F         127.6774  139.7646  155.3302 F       1  UNL1       -0.1328
     48 F         128.4605  138.6254  152.6678 F       1  UNL1       -0.1328
@<TRIPOS>BOND
     1    20    21    1
     2    21    22    1
     3    21    11    1
     4    11    12   ar
     5    12    13   ar
     6    13    23    1
     7    23    24    3
     8    13    14   ar
     9    14    15   ar
    10    15    16   ar
    11    16    17   ar
    12    17     5    1
    13     5     6   ar
    14     6     7   ar
    15     7     8   ar
    16     8     1    1
    17     1     2    2
    18     1     3   am
    19     3    25    1
    20    25    26    1
    21    26    27    1
    22    27    28    1
    23    28    32    1
    24    32    33   ar
    25    33    34   ar
    26    34    35   ar
    27    35    38    1
    28    38    39   ar
    29    39    40   ar
    30    40    41   ar
    31    41    42   ar
    32    42    43   ar
    33    43    44    1
    34    44    45    1
    35    45    46    1
    36    45    47    1
    37    45    48    1
    38    35    36   ar
    39    36    37   ar
    40    28    29   am
    41    29    30    2
    42    29    31    1
    43     8     9   ar
    44     9    10   ar
    45    17    18   ar
    46    18    19   ar
    47    19    11   ar
    48    19    15   ar
    49    10     5   ar
    50    31    26    1
    51    37    32   ar
    52    43    38   ar
    53     3     4    1
