@<TRIPOS>MOLECULE
*****
 29 32 0 0 0
SMALL
GASTEIGER

@<TRIPOS>ATOM
      1 O         142.9615  139.1824  167.3611 O.2     1  UNL1       -0.2699
      2 C         141.5671  139.7041  167.1781 C.2     1  UNL1        0.2491
      3 N         140.7640  139.2937  165.9795 N.am    1  UNL1       -0.2732
      4 C         141.3554  138.3616  164.9639 C.3     1  UNL1        0.1110
      5 C         140.5523  137.9511  163.7653 C.3     1  UNL1        0.0940
      6 N         139.1579  138.4728  163.5823 N.3     1  UNL1       -0.2683
      7 C         138.5666  139.4049  164.5979 C.3     1  UNL1        0.0940
      8 C         139.3696  139.8154  165.7965 C.3     1  UNL1        0.1110
      9 C         140.9757  140.6363  168.1937 C.ar    1  UNL1        0.0537
     10 C         140.1321  140.0931  169.3087 C.ar    1  UNL1        0.0068
     11 C         139.5407  141.0252  170.3243 C.ar    1  UNL1        0.0298
     12 C         139.7931  142.5005  170.2249 C.ar    1  UNL1        0.1401
     13 F         139.2017  143.4326  171.2406 F       1  UNL1       -0.2042
     14 C         140.6367  143.0436  169.1100 C.ar    1  UNL1        0.0298
     15 C         141.2280  142.1115  168.0944 C.ar    1  UNL1        0.0068
     16 C         138.3549  138.0624  162.3837 C.3     1  UNL1        0.0945
     17 C         138.1256  139.0355  161.2655 C.3     1  UNL1        0.1201
     18 N         138.8938  140.3232  161.2226 N.am    1  UNL1       -0.2077
     19 C         140.2353  140.3743  160.5533 C.2     1  UNL1        0.3332
     20 O         140.8085  139.1376  159.9271 O.2     1  UNL1       -0.2500
     21 N         141.0034  141.6619  160.5104 N.am    1  UNL1       -0.1658
     22 C         140.4302  142.8985  161.1366 C.2     1  UNL1        0.0613
     23 C         141.1984  144.1862  161.0937 C.3     1  UNL1        0.0694
     24 C         140.6251  145.4227  161.7199 C.2     1  UNL1       -0.0200
     25 C         139.2836  145.3717  162.3891 C.2     1  UNL1       -0.0040
     26 C         138.5154  144.0841  162.4321 C.2     1  UNL1        0.0052
     27 C         139.0887  142.8475  161.8059 C.2     1  UNL1        0.0656
     28 C         138.3205  141.5598  161.8488 C.2     1  UNL1        0.2569
     29 O         136.9790  141.5087  162.5180 O.2     1  UNL1       -0.2694
@<TRIPOS>BOND
     1     1     2    2
     2     2     9    1
     3     9    10   ar
     4    10    11   ar
     5    11    12   ar
     6    12    13    1
     7    12    14   ar
     8    14    15   ar
     9     2     3   am
    10     3     4    1
    11     4     5    1
    12     5     6    1
    13     6    16    1
    14    16    17    1
    15    17    18    1
    16    18    19   am
    17    19    20    2
    18    19    21    1
    19    21    22    2
    20    22    23    1
    21    23    24    1
    22    24    25    2
    23    25    26    1
    24    26    27    2
    25    27    28    1
    26    28    29    2
    27     6     7    1
    28     7     8    1
    29    15     9   ar
    30     8     3    1
    31    28    18   am
    32    27    22    1
@<TRIPOS>MOLECULE
*****
 29 32 0 0 0
SMALL
GASTEIGER

@<TRIPOS>ATOM
      1 O         138.1818  139.8806  170.0193 O.2     1  UNL1       -0.2699
      2 C         139.2799  140.2013  169.0491 C.2     1  UNL1        0.2491
      3 N         139.2194  139.6729  167.6465 N.am    1  UNL1       -0.2732
      4 C         138.0609  138.8238  167.2143 C.3     1  UNL1        0.1110
      5 C         138.0004  138.2954  165.8117 C.3     1  UNL1        0.0940
      6 N         139.0985  138.6161  164.8414 N.3     1  UNL1       -0.2683
      7 C         140.2570  139.4652  165.2737 C.3     1  UNL1        0.0940
      8 C         140.3175  139.9936  166.6762 C.3     1  UNL1        0.1110
      9 C         140.4384  141.0504  169.4813 C.ar    1  UNL1        0.0537
     10 C         140.3007  142.5435  169.5200 C.ar    1  UNL1        0.0068
     11 C         141.4592  143.3926  169.9523 C.ar    1  UNL1        0.0298
     12 C         142.7554  142.7486  170.3459 C.ar    1  UNL1        0.1401
     13 F         143.9140  143.5977  170.7782 F       1  UNL1       -0.2042
     14 C         142.8931  141.2554  170.3072 C.ar    1  UNL1        0.0298
     15 C         141.7346  140.4064  169.8750 C.ar    1  UNL1        0.0068
     16 C         139.0380  138.0877  163.4389 C.3     1  UNL1        0.0945
     17 C         138.6206  138.9893  162.3151 C.3     1  UNL1        0.1201
     18 N         139.2577  140.3384  162.1598 N.am    1  UNL1       -0.2077
     19 C         140.6674  140.4490  161.6593 C.2     1  UNL1        0.3332
     20 O         141.4400  139.2104  161.3142 O.2     1  UNL1       -0.2500
     21 N         141.3045  141.7980  161.5040 N.am    1  UNL1       -0.1658
     22 C         140.5319  143.0366  161.8491 C.2     1  UNL1        0.0613
     23 C         141.1690  144.3856  161.6938 C.3     1  UNL1        0.0694
     24 C         140.3964  145.6241  162.0389 C.2     1  UNL1       -0.0200
     25 C         138.9867  145.5136  162.5393 C.2     1  UNL1       -0.0040
     26 C         138.3496  144.1645  162.6947 C.2     1  UNL1        0.0052
     27 C         139.1222  142.9260  162.3496 C.2     1  UNL1        0.0656
     28 C         138.4851  141.5769  162.5049 C.2     1  UNL1        0.2569
     29 O         137.0754  141.4664  163.0053 O.2     1  UNL1       -0.2694
@<TRIPOS>BOND
     1     1     2    2
     2     2     9    1
     3     9    10   ar
     4    10    11   ar
     5    11    12   ar
     6    12    13    1
     7    12    14   ar
     8    14    15   ar
     9     2     3   am
    10     3     4    1
    11     4     5    1
    12     5     6    1
    13     6    16    1
    14    16    17    1
    15    17    18    1
    16    18    19   am
    17    19    20    2
    18    19    21    1
    19    21    22    2
    20    22    23    1
    21    23    24    1
    22    24    25    2
    23    25    26    1
    24    26    27    2
    25    27    28    1
    26    28    29    2
    27     6     7    1
    28     7     8    1
    29    15     9   ar
    30     8     3    1
    31    28    18   am
    32    27    22    1
@<TRIPOS>MOLECULE
*****
 29 32 0 0 0
SMALL
GASTEIGER

@<TRIPOS>ATOM
      1 O         144.8632  137.4912  155.6665 O.2     1  UNL1       -0.2699
      2 C         143.5010  137.0454  156.1086 C.2     1  UNL1        0.2491
      3 N         142.5648  138.0233  156.7546 N.am    1  UNL1       -0.2732
      4 C         142.9909  139.4470  156.9584 C.3     1  UNL1        0.1110
      5 C         142.0546  140.4249  157.6044 C.3     1  UNL1        0.0940
      6 N         140.6924  139.9791  158.0465 N.3     1  UNL1       -0.2683
      7 C         140.2663  138.5554  157.8427 C.3     1  UNL1        0.0940
      8 C         141.2025  137.5775  157.1967 C.3     1  UNL1        0.1110
      9 C         143.0749  135.6217  155.9048 C.ar    1  UNL1        0.0537
     10 C         142.3906  135.2185  154.6324 C.ar    1  UNL1        0.0068
     11 C         141.9646  133.7948  154.4285 C.ar    1  UNL1        0.0298
     12 C         142.2228  132.7743  155.4971 C.ar    1  UNL1        0.1401
     13 F         141.7967  131.3506  155.2933 F       1  UNL1       -0.2042
     14 C         142.9070  133.1776  156.7696 C.ar    1  UNL1        0.0298
     15 C         143.3331  134.6013  156.9734 C.ar    1  UNL1        0.0068
     16 C         139.7563  140.9570  158.6925 C.3     1  UNL1        0.0945
     17 C         138.4963  140.4703  159.3449 C.3     1  UNL1        0.1201
     18 N         138.4092  140.3887  160.8402 N.am    1  UNL1       -0.2077
     19 C         138.0158  141.5980  161.6356 C.2     1  UNL1        0.3332
     20 O         137.7094  142.8890  160.9357 O.2     1  UNL1       -0.2500
     21 N         137.9287  141.5165  163.1308 N.am    1  UNL1       -0.1658
     22 C         138.2351  140.2256  163.8307 C.2     1  UNL1        0.0613
     23 C         138.1480  140.1441  165.3259 C.3     1  UNL1        0.0694
     24 C         138.4543  138.8532  166.0257 C.2     1  UNL1       -0.0200
     25 C         138.8478  137.6439  165.2303 C.2     1  UNL1       -0.0040
     26 C         138.9349  137.7254  163.7351 C.2     1  UNL1        0.0052
     27 C         138.6285  139.0162  163.0353 C.2     1  UNL1        0.0656
     28 C         138.7156  139.0978  161.5400 C.2     1  UNL1        0.2569
     29 O         139.1090  137.8885  160.7446 O.2     1  UNL1       -0.2694
@<TRIPOS>BOND
     1     1     2    2
     2     2     9    1
     3     9    10   ar
     4    10    11   ar
     5    11    12   ar
     6    12    13    1
     7    12    14   ar
     8    14    15   ar
     9     2     3   am
    10     3     4    1
    11     4     5    1
    12     5     6    1
    13     6    16    1
    14    16    17    1
    15    17    18    1
    16    18    19   am
    17    19    20    2
    18    19    21    1
    19    21    22    2
    20    22    23    1
    21    23    24    1
    22    24    25    2
    23    25    26    1
    24    26    27    2
    25    27    28    1
    26    28    29    2
    27     6     7    1
    28     7     8    1
    29    15     9   ar
    30     8     3    1
    31    28    18   am
    32    27    22    1
@<TRIPOS>MOLECULE
*****
 29 32 0 0 0
SMALL
GASTEIGER

@<TRIPOS>ATOM
      1 O         138.2553  139.5228  168.9911 O.2     1  UNL1       -0.2699
      2 C         139.5005  139.9137  168.2518 C.2     1  UNL1        0.2491
      3 N         139.7334  139.4123  166.8574 N.am    1  UNL1       -0.2732
      4 C         138.7210  138.5201  166.2023 C.3     1  UNL1        0.1110
      5 C         138.9540  138.0188  164.8079 C.3     1  UNL1        0.0940
      6 N         140.1992  138.4096  164.0686 N.3     1  UNL1       -0.2683
      7 C         141.2115  139.3018  164.7237 C.3     1  UNL1        0.0940
      8 C         140.9787  139.8032  166.1181 C.3     1  UNL1        0.1110
      9 C         140.5128  140.8058  168.9069 C.ar    1  UNL1        0.0537
     10 C         140.3264  142.2940  168.8856 C.ar    1  UNL1        0.0068
     11 C         141.3387  143.1862  169.5407 C.ar    1  UNL1        0.0298
     12 C         142.5375  142.5902  170.2171 C.ar    1  UNL1        0.1401
     13 F         143.5499  143.4824  170.8722 F       1  UNL1       -0.2042
     14 C         142.7240  141.1020  170.2385 C.ar    1  UNL1        0.0298
     15 C         141.7117  140.2099  169.5834 C.ar    1  UNL1        0.0068
     16 C         140.4321  137.9083  162.6742 C.3     1  UNL1        0.0945
     17 C         140.1931  138.8133  161.5021 C.3     1  UNL1        0.1201
     18 N         139.6976  140.2118  161.7231 N.am    1  UNL1       -0.2077
     19 C         138.2240  140.4829  161.7945 C.2     1  UNL1        0.3332
     20 O         137.2459  139.3555  161.6448 O.2     1  UNL1       -0.2500
     21 N         137.7285  141.8813  162.0155 N.am    1  UNL1       -0.1658
     22 C         138.7066  143.0087  162.1652 C.2     1  UNL1        0.0613
     23 C         138.2111  144.4071  162.3862 C.3     1  UNL1        0.0694
     24 C         139.1891  145.5344  162.5359 C.2     1  UNL1       -0.0200
     25 C         140.6627  145.2634  162.4646 C.2     1  UNL1       -0.0040
     26 C         141.1582  143.8650  162.2435 C.2     1  UNL1        0.0052
     27 C         140.1801  142.7376  162.0938 C.2     1  UNL1        0.0656
     28 C         140.6756  141.3391  161.8728 C.2     1  UNL1        0.2569
     29 O         142.1492  141.0681  161.8015 O.2     1  UNL1       -0.2694
@<TRIPOS>BOND
     1     1     2    2
     2     2     9    1
     3     9    10   ar
     4    10    11   ar
     5    11    12   ar
     6    12    13    1
     7    12    14   ar
     8    14    15   ar
     9     2     3   am
    10     3     4    1
    11     4     5    1
    12     5     6    1
    13     6    16    1
    14    16    17    1
    15    17    18    1
    16    18    19   am
    17    19    20    2
    18    19    21    1
    19    21    22    2
    20    22    23    1
    21    23    24    1
    22    24    25    2
    23    25    26    1
    24    26    27    2
    25    27    28    1
    26    28    29    2
    27     6     7    1
    28     7     8    1
    29    15     9   ar
    30     8     3    1
    31    28    18   am
    32    27    22    1
@<TRIPOS>MOLECULE
*****
 29 32 0 0 0
SMALL
GASTEIGER

@<TRIPOS>ATOM
      1 O         138.5247  138.7891  165.9108 O.2     1  UNL1       -0.2699
      2 C         139.3161  140.0108  166.2727 C.2     1  UNL1        0.2491
      3 N         139.1934  141.2560  165.4456 N.am    1  UNL1       -0.2732
      4 C         138.2793  141.2796  164.2565 C.3     1  UNL1        0.1110
      5 C         138.1566  142.5249  163.4294 C.3     1  UNL1        0.0940
      6 N         138.9481  143.7466  163.7912 N.3     1  UNL1       -0.2683
      7 C         139.8622  143.7231  164.9803 C.3     1  UNL1        0.0940
      8 C         139.9849  142.4778  165.8074 C.3     1  UNL1        0.1110
      9 C         140.2303  139.9872  167.4617 C.ar    1  UNL1        0.0537
     10 C         141.6937  139.7145  167.2774 C.ar    1  UNL1        0.0068
     11 C         142.6078  139.6910  168.4664 C.ar    1  UNL1        0.0298
     12 C         142.0586  139.9401  169.8398 C.ar    1  UNL1        0.1401
     13 F         142.9727  139.9166  171.0288 F       1  UNL1       -0.2042
     14 C         140.5952  140.2128  170.0241 C.ar    1  UNL1        0.0298
     15 C         139.6810  140.2364  168.8351 C.ar    1  UNL1        0.0068
     16 C         138.8254  144.9919  162.9641 C.3     1  UNL1        0.0945
     17 C         140.0561  145.6576  162.4236 C.3     1  UNL1        0.1201
     18 N         141.1302  144.8353  161.7753 N.am    1  UNL1       -0.2077
     19 C         142.4636  144.6810  162.4449 C.2     1  UNL1        0.3332
     20 O         142.7229  145.3490  163.7627 O.2     1  UNL1       -0.2500
     21 N         143.5377  143.8588  161.7967 N.am    1  UNL1       -0.1658
     22 C         143.2785  143.1908  160.4788 C.2     1  UNL1        0.0613
     23 C         144.3526  142.3686  159.8306 C.3     1  UNL1        0.0694
     24 C         144.0933  141.7007  158.5128 C.2     1  UNL1       -0.0200
     25 C         142.7599  141.8549  157.8432 C.2     1  UNL1       -0.0040
     26 C         141.6858  142.6772  158.4915 C.2     1  UNL1        0.0052
     27 C         141.9451  143.3451  159.8092 C.2     1  UNL1        0.0656
     28 C         140.8710  144.1674  160.4575 C.2     1  UNL1        0.2569
     29 O         139.5376  144.3217  159.7880 O.2     1  UNL1       -0.2694
@<TRIPOS>BOND
     1     1     2    2
     2     2     9    1
     3     9    10   ar
     4    10    11   ar
     5    11    12   ar
     6    12    13    1
     7    12    14   ar
     8    14    15   ar
     9     2     3   am
    10     3     4    1
    11     4     5    1
    12     5     6    1
    13     6    16    1
    14    16    17    1
    15    17    18    1
    16    18    19   am
    17    19    20    2
    18    19    21    1
    19    21    22    2
    20    22    23    1
    21    23    24    1
    22    24    25    2
    23    25    26    1
    24    26    27    2
    25    27    28    1
    26    28    29    2
    27     6     7    1
    28     7     8    1
    29    15     9   ar
    30     8     3    1
    31    28    18   am
    32    27    22    1
@<TRIPOS>MOLECULE
*****
 29 32 0 0 0
SMALL
GASTEIGER

@<TRIPOS>ATOM
      1 O         138.1225  139.6807  169.1229 O.2     1  UNL1       -0.2699
      2 C         139.4150  139.9656  168.4170 C.2     1  UNL1        0.2491
      3 N         139.6896  139.3492  167.0774 N.am    1  UNL1       -0.2732
      4 C         138.6716  138.4480  166.4437 C.3     1  UNL1        0.1110
      5 C         138.9462  137.8316  165.1039 C.3     1  UNL1        0.0940
      6 N         140.2387  138.1165  164.3980 N.3     1  UNL1       -0.2683
      7 C         141.2566  139.0177  165.0318 C.3     1  UNL1        0.0940
      8 C         140.9821  139.6340  166.3714 C.3     1  UNL1        0.1110
      9 C         140.4329  140.8668  169.0508 C.ar    1  UNL1        0.0537
     10 C         141.5741  140.2800  169.8275 C.ar    1  UNL1        0.0068
     11 C         142.5920  141.1812  170.4612 C.ar    1  UNL1        0.0298
     12 C         142.4688  142.6692  170.3182 C.ar    1  UNL1        0.1401
     13 F         143.4867  143.5704  170.9520 F       1  UNL1       -0.2042
     14 C         141.3276  143.2560  169.5415 C.ar    1  UNL1        0.0298
     15 C         140.3097  142.3548  168.9078 C.ar    1  UNL1        0.0068
     16 C         140.5132  137.5001  163.0584 C.3     1  UNL1        0.0945
     17 C         140.7998  138.3755  161.8746 C.3     1  UNL1        0.1201
     18 N         141.7700  139.5127  162.0001 N.am    1  UNL1       -0.2077
     19 C         143.2434  139.2581  161.8803 C.2     1  UNL1        0.3332
     20 O         143.7466  137.8664  161.6351 O.2     1  UNL1       -0.2500
     21 N         144.2136  140.3952  162.0058 N.am    1  UNL1       -0.1658
     22 C         143.7104  141.7869  162.2510 C.2     1  UNL1        0.0613
     23 C         144.6806  142.9240  162.3765 C.3     1  UNL1        0.0694
     24 C         144.1774  144.3156  162.6216 C.2     1  UNL1       -0.0200
     25 C         142.7040  144.5701  162.7414 C.2     1  UNL1       -0.0040
     26 C         141.7338  143.4331  162.6159 C.2     1  UNL1        0.0052
     27 C         142.2370  142.0414  162.3707 C.2     1  UNL1        0.0656
     28 C         141.2668  140.9043  162.2452 C.2     1  UNL1        0.2569
     29 O         139.7934  141.1588  162.3650 O.2     1  UNL1       -0.2694
@<TRIPOS>BOND
     1     1     2    2
     2     2     9    1
     3     9    10   ar
     4    10    11   ar
     5    11    12   ar
     6    12    13    1
     7    12    14   ar
     8    14    15   ar
     9     2     3   am
    10     3     4    1
    11     4     5    1
    12     5     6    1
    13     6    16    1
    14    16    17    1
    15    17    18    1
    16    18    19   am
    17    19    20    2
    18    19    21    1
    19    21    22    2
    20    22    23    1
    21    23    24    1
    22    24    25    2
    23    25    26    1
    24    26    27    2
    25    27    28    1
    26    28    29    2
    27     6     7    1
    28     7     8    1
    29    15     9   ar
    30     8     3    1
    31    28    18   am
    32    27    22    1
@<TRIPOS>MOLECULE
*****
 29 32 0 0 0
SMALL
GASTEIGER

@<TRIPOS>ATOM
      1 O         143.3470  138.7664  167.8745 O.2     1  UNL1       -0.2699
      2 C         142.1591  139.5253  167.3619 C.2     1  UNL1        0.2491
      3 N         141.6837  139.3134  165.9551 N.am    1  UNL1       -0.2732
      4 C         142.3963  138.3425  165.0609 C.3     1  UNL1        0.1110
      5 C         141.9209  138.1306  163.6541 C.3     1  UNL1        0.0940
      6 N         140.7330  138.8896  163.1415 N.3     1  UNL1       -0.2683
      7 C         140.0204  139.8605  164.0357 C.3     1  UNL1        0.0940
      8 C         140.4958  140.0724  165.4425 C.3     1  UNL1        0.1110
      9 C         141.4465  140.4962  168.2561 C.ar    1  UNL1        0.0537
     10 C         141.9227  141.9153  168.3530 C.ar    1  UNL1        0.0068
     11 C         141.2102  142.8862  169.2471 C.ar    1  UNL1        0.0298
     12 C         140.0213  142.4381  170.0445 C.ar    1  UNL1        0.1401
     13 F         139.3088  143.4090  170.9387 F       1  UNL1       -0.2042
     14 C         139.5451  141.0190  169.9476 C.ar    1  UNL1        0.0298
     15 C         140.2577  140.0481  169.0534 C.ar    1  UNL1        0.0068
     16 C         140.2577  138.6776  161.7347 C.3     1  UNL1        0.0945
     17 C         140.9623  139.3523  160.5953 C.3     1  UNL1        0.1201
     18 N         141.2738  138.5836  159.3454 N.am    1  UNL1       -0.2077
     19 C         142.6324  137.9763  159.1575 C.2     1  UNL1        0.3332
     20 O         143.6795  138.1376  160.2195 O.2     1  UNL1       -0.2500
     21 N         142.9440  137.2076  157.9077 N.am    1  UNL1       -0.1658
     22 C         141.8970  137.0463  156.8457 C.2     1  UNL1        0.0613
     23 C         142.2085  136.2776  155.5959 C.3     1  UNL1        0.0694
     24 C         141.1615  136.1163  154.5341 C.2     1  UNL1       -0.0200
     25 C         139.8029  136.7236  154.7220 C.2     1  UNL1       -0.0040
     26 C         139.4913  137.4923  155.9717 C.2     1  UNL1        0.0052
     27 C         140.5383  137.6536  157.0336 C.2     1  UNL1        0.0656
     28 C         140.2268  138.4223  158.2835 C.2     1  UNL1        0.2569
     29 O         138.8682  139.0297  158.4714 O.2     1  UNL1       -0.2694
@<TRIPOS>BOND
     1     1     2    2
     2     2     9    1
     3     9    10   ar
     4    10    11   ar
     5    11    12   ar
     6    12    13    1
     7    12    14   ar
     8    14    15   ar
     9     2     3   am
    10     3     4    1
    11     4     5    1
    12     5     6    1
    13     6    16    1
    14    16    17    1
    15    17    18    1
    16    18    19   am
    17    19    20    2
    18    19    21    1
    19    21    22    2
    20    22    23    1
    21    23    24    1
    22    24    25    2
    23    25    26    1
    24    26    27    2
    25    27    28    1
    26    28    29    2
    27     6     7    1
    28     7     8    1
    29    15     9   ar
    30     8     3    1
    31    28    18   am
    32    27    22    1
@<TRIPOS>MOLECULE
*****
 29 32 0 0 0
SMALL
GASTEIGER

@<TRIPOS>ATOM
      1 O         139.2457  140.1403  167.4289 O.2     1  UNL1       -0.2699
      2 C         139.9687  141.4195  167.1277 C.2     1  UNL1        0.2491
      3 N         139.7787  142.0940  165.8015 N.am    1  UNL1       -0.2732
      4 C         138.8657  141.4893  164.7765 C.3     1  UNL1        0.1110
      5 C         138.6757  142.1639  163.4502 C.3     1  UNL1        0.0940
      6 N         139.3987  143.4431  163.1490 N.3     1  UNL1       -0.2683
      7 C         140.3117  144.0479  164.1741 C.3     1  UNL1        0.0940
      8 C         140.5017  143.3734  165.5003 C.3     1  UNL1        0.1110
      9 C         140.8818  142.0243  168.1528 C.ar    1  UNL1        0.0537
     10 C         140.3479  143.0222  169.1371 C.ar    1  UNL1        0.0068
     11 C         141.2609  143.6269  170.1621 C.ar    1  UNL1        0.0298
     12 C         142.7078  143.2338  170.2028 C.ar    1  UNL1        0.1401
     13 F         143.6209  143.8385  171.2278 F       1  UNL1       -0.2042
     14 C         143.2418  142.2358  169.2184 C.ar    1  UNL1        0.0298
     15 C         142.3287  141.6311  168.1934 C.ar    1  UNL1        0.0068
     16 C         139.2086  144.1176  161.8228 C.3     1  UNL1        0.0945
     17 C         140.0413  143.7049  160.6454 C.3     1  UNL1        0.1201
     18 N         141.0953  142.6497  160.8051 N.am    1  UNL1       -0.2077
     19 C         142.4887  143.0358  161.2042 C.2     1  UNL1        0.3332
     20 O         142.8281  144.4772  161.4435 O.2     1  UNL1       -0.2500
     21 N         143.5428  141.9806  161.3639 N.am    1  UNL1       -0.1658
     22 C         143.2034  140.5392  161.1246 C.2     1  UNL1        0.0613
     23 C         144.2574  139.4840  161.2844 C.3     1  UNL1        0.0694
     24 C         143.9180  138.0427  161.0451 C.2     1  UNL1       -0.0200
     25 C         142.5246  137.6565  160.6461 C.2     1  UNL1       -0.0040
     26 C         141.4705  138.7117  160.4863 C.2     1  UNL1        0.0052
     27 C         141.8099  140.1530  160.7256 C.2     1  UNL1        0.0656
     28 C         140.7559  141.2083  160.5658 C.2     1  UNL1        0.2569
     29 O         139.3625  140.8222  160.1668 O.2     1  UNL1       -0.2694
@<TRIPOS>BOND
     1     1     2    2
     2     2     9    1
     3     9    10   ar
     4    10    11   ar
     5    11    12   ar
     6    12    13    1
     7    12    14   ar
     8    14    15   ar
     9     2     3   am
    10     3     4    1
    11     4     5    1
    12     5     6    1
    13     6    16    1
    14    16    17    1
    15    17    18    1
    16    18    19   am
    17    19    20    2
    18    19    21    1
    19    21    22    2
    20    22    23    1
    21    23    24    1
    22    24    25    2
    23    25    26    1
    24    26    27    2
    25    27    28    1
    26    28    29    2
    27     6     7    1
    28     7     8    1
    29    15     9   ar
    30     8     3    1
    31    28    18   am
    32    27    22    1
@<TRIPOS>MOLECULE
*****
 29 32 0 0 0
SMALL
GASTEIGER

@<TRIPOS>ATOM
      1 O         144.3385  139.8682  164.8179 O.2     1  UNL1       -0.2699
      2 C         142.9487  139.9490  165.3761 C.2     1  UNL1        0.2491
      3 N         141.7719  139.6077  164.5108 N.am    1  UNL1       -0.2732
      4 C         141.9850  139.1856  163.0873 C.3     1  UNL1        0.1110
      5 C         140.8082  138.8443  162.2220 C.3     1  UNL1        0.0940
      6 N         139.4183  138.9251  162.7803 N.3     1  UNL1       -0.2683
      7 C         139.2052  139.3473  164.2038 C.3     1  UNL1        0.0940
      8 C         140.3820  139.6886  165.0691 C.3     1  UNL1        0.1110
      9 C         142.7356  140.3712  166.7996 C.ar    1  UNL1        0.0537
     10 C         142.6553  139.3382  167.8842 C.ar    1  UNL1        0.0068
     11 C         142.4422  139.7603  169.3077 C.ar    1  UNL1        0.0298
     12 C         142.3093  141.2154  169.6466 C.ar    1  UNL1        0.1401
     13 F         142.0962  141.6376  171.0701 F       1  UNL1       -0.2042
     14 C         142.3896  142.2484  168.5620 C.ar    1  UNL1        0.0298
     15 C         142.6027  141.8263  167.1385 C.ar    1  UNL1        0.0068
     16 C         138.2416  138.5838  161.9150 C.3     1  UNL1        0.0945
     17 C         137.6097  139.6400  161.0576 C.3     1  UNL1        0.1201
     18 N         138.2675  140.9802  160.9116 N.am    1  UNL1       -0.2077
     19 C         137.9293  142.0894  161.8631 C.2     1  UNL1        0.3332
     20 O         136.9332  141.8583  162.9606 O.2     1  UNL1       -0.2500
     21 N         138.5871  143.4295  161.7171 N.am    1  UNL1       -0.1658
     22 C         139.5832  143.6605  160.6196 C.2     1  UNL1        0.0613
     23 C         140.2409  145.0006  160.4737 C.3     1  UNL1        0.0694
     24 C         141.2370  145.2316  159.3762 C.2     1  UNL1       -0.0200
     25 C         141.5753  144.1225  158.4247 C.2     1  UNL1       -0.0040
     26 C         140.9175  142.7824  158.5706 C.2     1  UNL1        0.0052
     27 C         139.9214  142.5514  159.6681 C.2     1  UNL1        0.0656
     28 C         139.2636  141.2112  159.8141 C.2     1  UNL1        0.2569
     29 O         139.6019  140.1021  158.8626 O.2     1  UNL1       -0.2694
@<TRIPOS>BOND
     1     1     2    2
     2     2     9    1
     3     9    10   ar
     4    10    11   ar
     5    11    12   ar
     6    12    13    1
     7    12    14   ar
     8    14    15   ar
     9     2     3   am
    10     3     4    1
    11     4     5    1
    12     5     6    1
    13     6    16    1
    14    16    17    1
    15    17    18    1
    16    18    19   am
    17    19    20    2
    18    19    21    1
    19    21    22    2
    20    22    23    1
    21    23    24    1
    22    24    25    2
    23    25    26    1
    24    26    27    2
    25    27    28    1
    26    28    29    2
    27     6     7    1
    28     7     8    1
    29    15     9   ar
    30     8     3    1
    31    28    18   am
    32    27    22    1
