@<TRIPOS>MOLECULE
*****
 35 38 0 0 0
SMALL
GASTEIGER

@<TRIPOS>ATOM
      1 C         140.0145  143.6277  164.9441 C.3     1  UNL1        0.1812
      2 O         141.4712  143.2703  164.9639 O.3     1  UNL1       -0.3784
      3 H         141.5910  142.4275  165.4289 H       1  UNL1        0.2106
      4 C         138.5579  143.9851  164.9242 C.3     1  UNL1        0.4197
      5 F         137.1012  144.3425  164.9043 F       1  UNL1       -0.1676
      6 F         138.8939  145.3793  165.3643 F       1  UNL1       -0.1676
      7 F         138.2219  142.5911  164.4841 F       1  UNL1       -0.1676
      8 C         139.6960  142.3717  165.6997 C.3     1  UNL1        0.0398
      9 C         140.4879  142.0101  166.9213 C.3     1  UNL1        0.0212
     10 C         140.9420  140.7464  166.2528 C.3     1  UNL1        0.0044
     11 C         140.0337  143.2738  167.5897 C.3     1  UNL1        0.0044
     12 C         139.3674  140.0683  168.9148 C.3     1  UNL1        0.0307
     13 C         140.7196  140.6777  169.1396 C.ar    1  UNL1       -0.0257
     14 C         141.5114  140.3161  170.3611 C.ar    1  UNL1       -0.0023
     15 C         142.8635  140.9254  170.5859 C.ar    1  UNL1        0.0293
     16 C         143.4238  141.8963  169.5892 C.ar    1  UNL1        0.1398
     17 F         144.7759  142.5056  169.8140 F       1  UNL1       -0.2042
     18 C         142.6319  142.2579  168.3676 C.ar    1  UNL1        0.0250
     19 C         141.2798  141.6485  168.1428 C.ar    1  UNL1       -0.0244
     20 C         140.3330  144.8837  164.1884 C.3     1  UNL1        0.0811
     21 C         140.7337  144.8093  162.7449 C.2     1  UNL1        0.0613
     22 C         140.1277  145.5952  161.6200 C.2     1  UNL1        0.0160
     23 C         140.8301  145.2075  160.3526 C.2     1  UNL1        0.0182
     24 C         140.6571  145.6558  158.9316 C.2     1  UNL1        0.0200
     25 C         141.5241  145.0786  157.8522 C.2     1  UNL1        0.0765
     26 N         142.5642  144.0532  158.1937 N.2     1  UNL1       -0.2639
     27 C         142.7373  143.6049  159.6147 C.3     1  UNL1        0.1707
     28 C         141.8703  144.1820  160.6941 C.2     1  UNL1        0.0832
     29 N         141.8106  143.9359  162.1727 N.2     1  UNL1       -0.2519
     30 C         141.3511  145.5268  156.4313 C.ar    1  UNL1        0.0172
     31 C         140.2717  146.5077  156.0804 C.ar    1  UNL1        0.0015
     32 C         140.0986  146.9559  154.6595 C.ar    1  UNL1        0.0000
     33 C         141.0049  146.4234  153.5894 C.ar    1  UNL1        0.0000
     34 C         142.0842  145.4426  153.9402 C.ar    1  UNL1        0.0000
     35 C         142.2573  144.9943  155.3612 C.ar    1  UNL1        0.0015
@<TRIPOS>BOND
     1    12    13    1
     2    13    14   ar
     3    14    15   ar
     4    15    16   ar
     5    16    17    1
     6    16    18   ar
     7    18    19   ar
     8    19     9    1
     9     9    10    1
    10     9    11    1
    11     9     8    1
    12     8     1    1
    13     1     2    1
    14     1    20    1
    15    20    21    1
    16    21    22    2
    17    22    23    1
    18    23    24    2
    19    24    25    1
    20    25    30    1
    21    30    31   ar
    22    31    32   ar
    23    32    33   ar
    24    33    34   ar
    25    34    35   ar
    26    25    26    2
    27    26    27    1
    28    27    28    1
    29    28    29    2
    30     1     4    1
    31     4     5    1
    32     4     6    1
    33     4     7    1
    34    19    13   ar
    35    29    21    1
    36    28    23    1
    37    35    30   ar
    38     2     3    1
@<TRIPOS>MOLECULE
*****
 35 38 0 0 0
SMALL
GASTEIGER

@<TRIPOS>ATOM
      1 C         139.4399  143.0989  164.3786 C.3     1  UNL1        0.1812
      2 O         140.5979  142.2678  163.9116 O.3     1  UNL1       -0.3784
      3 H         140.5069  141.3649  164.2543 H       1  UNL1        0.2106
      4 C         138.2819  143.9301  164.8457 C.3     1  UNL1        0.4197
      5 F         137.1238  144.7612  165.3128 F       1  UNL1       -0.1676
      6 F         139.2090  145.0832  165.0927 F       1  UNL1       -0.1676
      7 F         137.3548  142.7771  164.5988 F       1  UNL1       -0.1676
      8 C         138.8812  141.9119  165.1060 C.3     1  UNL1        0.0398
      9 C         139.6585  141.2837  166.2245 C.3     1  UNL1        0.0212
     10 C         140.1381  142.6390  166.6524 C.3     1  UNL1        0.0044
     11 C         139.1789  139.9284  165.7966 C.3     1  UNL1        0.0044
     12 C         142.4525  140.3027  165.7435 C.3     1  UNL1        0.0307
     13 C         141.8328  140.1650  167.1026 C.ar    1  UNL1       -0.0257
     14 C         142.6101  139.5368  168.2211 C.ar    1  UNL1       -0.0023
     15 C         141.9905  139.3991  169.5802 C.ar    1  UNL1        0.0293
     16 C         140.5935  139.8896  169.8207 C.ar    1  UNL1        0.1398
     17 F         139.9738  139.7519  171.1798 F       1  UNL1       -0.2042
     18 C         139.8161  140.5178  168.7022 C.ar    1  UNL1        0.0250
     19 C         140.4358  140.6555  167.3431 C.ar    1  UNL1       -0.0244
     20 C         139.9985  144.2859  163.6514 C.3     1  UNL1        0.0811
     21 C         139.9563  144.3353  162.1528 C.2     1  UNL1        0.0613
     22 C         140.3422  145.5060  161.2979 C.2     1  UNL1        0.0160
     23 C         140.1452  145.1169  159.8627 C.2     1  UNL1        0.0182
     24 C         140.3625  145.8652  158.5810 C.2     1  UNL1        0.0200
     25 C         140.0722  145.2023  157.2671 C.2     1  UNL1        0.0765
     26 N         139.5645  143.7913  157.2349 N.2     1  UNL1       -0.2639
     27 C         139.3472  143.0429  158.5166 C.3     1  UNL1        0.1707
     28 C         139.6375  143.7057  159.8305 C.2     1  UNL1        0.0832
     29 N         139.5208  143.2227  161.2459 N.2     1  UNL1       -0.2519
     30 C         140.2895  145.9506  155.9853 C.ar    1  UNL1        0.0172
     31 C         139.5823  147.2520  155.7475 C.ar    1  UNL1        0.0015
     32 C         139.7996  148.0003  154.4658 C.ar    1  UNL1        0.0000
     33 C         140.7241  147.4473  153.4219 C.ar    1  UNL1        0.0000
     34 C         141.4312  146.1460  153.6598 C.ar    1  UNL1        0.0000
     35 C         141.2139  145.3977  154.9415 C.ar    1  UNL1        0.0015
@<TRIPOS>BOND
     1    12    13    1
     2    13    14   ar
     3    14    15   ar
     4    15    16   ar
     5    16    17    1
     6    16    18   ar
     7    18    19   ar
     8    19     9    1
     9     9    10    1
    10     9    11    1
    11     9     8    1
    12     8     1    1
    13     1     2    1
    14     1    20    1
    15    20    21    1
    16    21    22    2
    17    22    23    1
    18    23    24    2
    19    24    25    1
    20    25    30    1
    21    30    31   ar
    22    31    32   ar
    23    32    33   ar
    24    33    34   ar
    25    34    35   ar
    26    25    26    2
    27    26    27    1
    28    27    28    1
    29    28    29    2
    30     1     4    1
    31     4     5    1
    32     4     6    1
    33     4     7    1
    34    19    13   ar
    35    29    21    1
    36    28    23    1
    37    35    30   ar
    38     2     3    1
@<TRIPOS>MOLECULE
*****
 35 38 0 0 0
SMALL
GASTEIGER

@<TRIPOS>ATOM
      1 C         141.6696  143.0296  163.9449 C.3     1  UNL1        0.1812
      2 O         141.2892  141.5787  163.9484 O.3     1  UNL1       -0.3784
      3 H         141.5054  141.1898  164.8103 H       1  UNL1        0.2106
      4 C         142.0501  144.4805  163.9414 C.3     1  UNL1        0.4197
      5 F         142.4305  145.9315  163.9379 F       1  UNL1       -0.1676
      6 F         140.6963  144.8342  163.4007 F       1  UNL1       -0.1676
      7 F         143.4038  144.1269  164.4820 F       1  UNL1       -0.1676
      8 C         142.1588  142.9048  165.3574 C.3     1  UNL1        0.0398
      9 C         141.3217  142.1968  166.3812 C.3     1  UNL1        0.0212
     10 C         142.4266  141.2060  166.5993 C.3     1  UNL1        0.0044
     11 C         140.2169  143.1876  166.1631 C.3     1  UNL1        0.0044
     12 C         141.4732  143.0097  169.2650 C.3     1  UNL1        0.0307
     13 C         140.5604  141.8952  168.8468 C.ar    1  UNL1       -0.0257
     14 C         139.7233  141.1872  169.8705 C.ar    1  UNL1       -0.0023
     15 C         138.8106  140.0727  169.4524 C.ar    1  UNL1        0.0293
     16 C         138.7348  139.6663  168.0105 C.ar    1  UNL1        0.1398
     17 F         137.8221  138.5519  167.5923 F       1  UNL1       -0.2042
     18 C         139.5719  140.3743  166.9867 C.ar    1  UNL1        0.0250
     19 C         140.4847  141.4888  167.4049 C.ar    1  UNL1       -0.0244
     20 C         141.1805  143.1544  162.5324 C.3     1  UNL1        0.0811
     21 C         141.9789  142.5653  161.4075 C.2     1  UNL1        0.0613
     22 C         142.8215  143.3294  160.4296 C.2     1  UNL1        0.0160
     23 C         143.4382  142.3450  159.4806 C.2     1  UNL1        0.0182
     24 C         144.3604  142.5210  158.3108 C.2     1  UNL1        0.0200
     25 C         144.8210  141.3244  157.5322 C.2     1  UNL1        0.0765
     26 N         144.3595  139.9519  157.9235 N.2     1  UNL1       -0.2639
     27 C         143.4374  139.7759  159.0934 C.3     1  UNL1        0.1707
     28 C         142.9767  140.9723  159.8719 C.2     1  UNL1        0.0832
     29 N         142.0748  141.1085  161.0628 N.2     1  UNL1       -0.2519
     30 C         145.7432  141.5005  156.3623 C.ar    1  UNL1        0.0172
     31 C         145.4019  140.8826  155.0387 C.ar    1  UNL1        0.0015
     32 C         146.3241  141.0586  153.8688 C.ar    1  UNL1        0.0000
     33 C         147.5875  141.8526  154.0225 C.ar    1  UNL1        0.0000
     34 C         147.9287  142.4704  155.3460 C.ar    1  UNL1        0.0000
     35 C         147.0065  142.2944  156.5159 C.ar    1  UNL1        0.0015
@<TRIPOS>BOND
     1    12    13    1
     2    13    14   ar
     3    14    15   ar
     4    15    16   ar
     5    16    17    1
     6    16    18   ar
     7    18    19   ar
     8    19     9    1
     9     9    10    1
    10     9    11    1
    11     9     8    1
    12     8     1    1
    13     1     2    1
    14     1    20    1
    15    20    21    1
    16    21    22    2
    17    22    23    1
    18    23    24    2
    19    24    25    1
    20    25    30    1
    21    30    31   ar
    22    31    32   ar
    23    32    33   ar
    24    33    34   ar
    25    34    35   ar
    26    25    26    2
    27    26    27    1
    28    27    28    1
    29    28    29    2
    30     1     4    1
    31     4     5    1
    32     4     6    1
    33     4     7    1
    34    19    13   ar
    35    29    21    1
    36    28    23    1
    37    35    30   ar
    38     2     3    1
@<TRIPOS>MOLECULE
*****
 35 38 0 0 0
SMALL
GASTEIGER

@<TRIPOS>ATOM
      1 C         138.6294  143.9516  163.7207 C.3     1  UNL1        0.1812
      2 O         138.6491  143.1966  162.4248 O.3     1  UNL1       -0.3784
      3 H         138.2592  142.3183  162.5563 H       1  UNL1        0.2106
      4 C         138.6097  144.7065  165.0167 C.3     1  UNL1        0.4197
      5 F         138.5899  145.4615  166.3128 F       1  UNL1       -0.1676
      6 F         140.0718  145.0056  164.8648 F       1  UNL1       -0.1676
      7 F         137.1477  144.4075  165.1687 F       1  UNL1       -0.1676
      8 C         137.9828  142.7778  164.3947 C.3     1  UNL1        0.0398
      9 C         138.5478  141.4009  164.2080 C.3     1  UNL1        0.0212
     10 C         137.3642  141.0296  163.3647 C.3     1  UNL1        0.0044
     11 C         139.7315  141.7722  165.0513 C.3     1  UNL1        0.0044
     12 C         138.0238  139.2738  166.2576 C.3     1  UNL1        0.0307
     13 C         138.8509  138.9604  165.0460 C.ar    1  UNL1       -0.0257
     14 C         139.4159  137.5835  164.8592 C.ar    1  UNL1       -0.0023
     15 C         140.2429  137.2702  163.6477 C.ar    1  UNL1        0.0293
     16 C         140.5049  138.3337  162.6229 C.ar    1  UNL1        0.1398
     17 F         141.3319  138.0204  161.4113 F       1  UNL1       -0.2042
     18 C         139.9399  139.7106  162.8096 C.ar    1  UNL1        0.0250
     19 C         139.1129  140.0240  164.0212 C.ar    1  UNL1       -0.0244
     20 C         139.2760  145.1253  163.0468 C.3     1  UNL1        0.0811
     21 C         139.9873  144.9411  161.7392 C.2     1  UNL1        0.0613
     22 C         141.0868  143.9583  161.4643 C.2     1  UNL1        0.0160
     23 C         141.5030  144.1171  160.0320 C.2     1  UNL1        0.0182
     24 C         142.5401  143.4171  159.2047 C.2     1  UNL1        0.0200
     25 C         142.7351  143.7980  157.7670 C.2     1  UNL1        0.0765
     26 N         141.8930  144.8788  157.1566 N.2     1  UNL1       -0.2639
     27 C         140.8559  145.5788  157.9839 C.3     1  UNL1        0.1707
     28 C         140.6609  145.1980  159.4216 C.2     1  UNL1        0.0832
     29 N         139.7241  145.7072  160.4767 N.2     1  UNL1       -0.2519
     30 C         143.7722  143.0980  156.9397 C.ar    1  UNL1        0.0172
     31 C         144.9281  142.4139  157.6076 C.ar    1  UNL1        0.0015
     32 C         145.9652  141.7139  156.7803 C.ar    1  UNL1        0.0000
     33 C         145.8464  141.6979  155.2851 C.ar    1  UNL1        0.0000
     34 C         144.6906  142.3820  154.6172 C.ar    1  UNL1        0.0000
     35 C         143.6535  143.0820  155.4445 C.ar    1  UNL1        0.0015
@<TRIPOS>BOND
     1    12    13    1
     2    13    14   ar
     3    14    15   ar
     4    15    16   ar
     5    16    17    1
     6    16    18   ar
     7    18    19   ar
     8    19     9    1
     9     9    10    1
    10     9    11    1
    11     9     8    1
    12     8     1    1
    13     1     2    1
    14     1    20    1
    15    20    21    1
    16    21    22    2
    17    22    23    1
    18    23    24    2
    19    24    25    1
    20    25    30    1
    21    30    31   ar
    22    31    32   ar
    23    32    33   ar
    24    33    34   ar
    25    34    35   ar
    26    25    26    2
    27    26    27    1
    28    27    28    1
    29    28    29    2
    30     1     4    1
    31     4     5    1
    32     4     6    1
    33     4     7    1
    34    19    13   ar
    35    29    21    1
    36    28    23    1
    37    35    30   ar
    38     2     3    1
@<TRIPOS>MOLECULE
*****
 35 38 0 0 0
SMALL
GASTEIGER

@<TRIPOS>ATOM
      1 C         143.6214  140.4597  163.3733 C.3     1  UNL1        0.1812
      2 O         142.2681  139.8268  163.2402 O.3     1  UNL1       -0.3784
      3 H         142.0551  139.3446  164.0544 H       1  UNL1        0.2106
      4 C         144.9748  141.0926  163.5064 C.3     1  UNL1        0.4197
      5 F         146.3282  141.7256  163.6396 F       1  UNL1       -0.1676
      6 F         145.5168  139.8143  164.0742 F       1  UNL1       -0.1676
      7 F         144.4329  142.3708  162.9387 F       1  UNL1       -0.1676
      8 C         143.7507  139.8925  164.7560 C.3     1  UNL1        0.0398
      9 C         142.5597  139.8588  165.6672 C.3     1  UNL1        0.0212
     10 C         142.4444  141.3513  165.5717 C.3     1  UNL1        0.0044
     11 C         142.6749  138.3663  165.7626 C.3     1  UNL1        0.0044
     12 C         142.8887  140.4562  168.5886 C.3     1  UNL1        0.0307
     13 C         141.5331  140.1238  168.0390 C.ar    1  UNL1       -0.0257
     14 C         140.3420  140.0901  168.9502 C.ar    1  UNL1       -0.0023
     15 C         138.9865  139.7577  168.4007 C.ar    1  UNL1        0.0293
     16 C         138.8220  139.4590  166.9399 C.ar    1  UNL1        0.1398
     17 F         137.4664  139.1267  166.3904 F       1  UNL1       -0.2042
     18 C         140.0130  139.4927  166.0287 C.ar    1  UNL1        0.0250
     19 C         141.3686  139.8251  166.5783 C.ar    1  UNL1       -0.0244
     20 C         143.4922  141.0269  161.9907 C.3     1  UNL1        0.0811
     21 C         142.8719  140.2068  160.8987 C.2     1  UNL1        0.0613
     22 C         143.5920  139.2439  160.0017 C.2     1  UNL1        0.0160
     23 C         142.5878  138.6476  159.0604 C.2     1  UNL1        0.0182
     24 C         142.7210  137.6402  157.9570 C.2     1  UNL1        0.0200
     25 C         141.5134  137.2271  157.1689 C.2     1  UNL1        0.0765
     26 N         140.1728  137.8213  157.4841 N.2     1  UNL1       -0.2639
     27 C         140.0396  138.8287  158.5875 C.3     1  UNL1        0.1707
     28 C         141.2471  139.2418  159.3756 C.2     1  UNL1        0.0832
     29 N         141.4227  140.2055  160.5118 N.2     1  UNL1       -0.2519
     30 C         141.6466  136.2197  156.0655 C.ar    1  UNL1        0.0172
     31 C         142.6028  135.0728  156.2084 C.ar    1  UNL1        0.0015
     32 C         142.7360  134.0654  155.1050 C.ar    1  UNL1        0.0000
     33 C         141.9130  134.2050  153.8587 C.ar    1  UNL1        0.0000
     34 C         140.9569  135.3518  153.7158 C.ar    1  UNL1        0.0000
     35 C         140.8237  136.3592  154.8192 C.ar    1  UNL1        0.0015
@<TRIPOS>BOND
     1    12    13    1
     2    13    14   ar
     3    14    15   ar
     4    15    16   ar
     5    16    17    1
     6    16    18   ar
     7    18    19   ar
     8    19     9    1
     9     9    10    1
    10     9    11    1
    11     9     8    1
    12     8     1    1
    13     1     2    1
    14     1    20    1
    15    20    21    1
    16    21    22    2
    17    22    23    1
    18    23    24    2
    19    24    25    1
    20    25    30    1
    21    30    31   ar
    22    31    32   ar
    23    32    33   ar
    24    33    34   ar
    25    34    35   ar
    26    25    26    2
    27    26    27    1
    28    27    28    1
    29    28    29    2
    30     1     4    1
    31     4     5    1
    32     4     6    1
    33     4     7    1
    34    19    13   ar
    35    29    21    1
    36    28    23    1
    37    35    30   ar
    38     2     3    1
@<TRIPOS>MOLECULE
*****
 35 38 0 0 0
SMALL
GASTEIGER

@<TRIPOS>ATOM
      1 C         139.5297  139.8048  165.3407 C.3     1  UNL1        0.1812
      2 O         140.1553  141.1678  165.3683 O.3     1  UNL1       -0.3784
      3 H         140.9148  141.1628  165.9718 H       1  UNL1        0.2106
      4 C         138.9041  138.4418  165.3131 C.3     1  UNL1        0.4197
      5 F         138.2783  137.0788  165.2855 F       1  UNL1       -0.1676
      6 F         140.2145  137.8488  164.8875 F       1  UNL1       -0.1676
      7 F         137.5936  139.0347  165.7387 F       1  UNL1       -0.1676
      8 C         140.5541  139.3146  166.3208 C.3     1  UNL1        0.0398
      9 C         140.9006  140.1443  167.5214 C.3     1  UNL1        0.0212
     10 C         139.5182  139.9353  168.0648 C.3     1  UNL1        0.0044
     11 C         142.2830  140.3534  166.9780 C.3     1  UNL1        0.0044
     12 C         142.3951  138.9148  169.8137 C.3     1  UNL1        0.0307
     13 C         141.9943  140.3593  169.8682 C.ar    1  UNL1       -0.0257
     14 C         142.3408  141.1889  171.0689 C.ar    1  UNL1       -0.0023
     15 C         141.9401  142.6333  171.1234 C.ar    1  UNL1        0.0293
     16 C         141.1928  143.2482  169.9772 C.ar    1  UNL1        0.1398
     17 F         140.7920  144.6926  170.0318 F       1  UNL1       -0.2042
     18 C         140.8463  142.4185  168.7766 C.ar    1  UNL1        0.0250
     19 C         141.2471  140.9740  168.7221 C.ar    1  UNL1       -0.0244
     20 C         138.5053  140.2949  164.3607 C.3     1  UNL1        0.0811
     21 C         138.8679  141.3562  163.3646 C.2     1  UNL1        0.0613
     22 C         139.3962  141.1226  161.9802 C.2     1  UNL1        0.0160
     23 C         139.6206  142.4594  161.3380 C.2     1  UNL1        0.0182
     24 C         140.1293  142.8486  159.9817 C.2     1  UNL1        0.0200
     25 C         140.2485  144.2977  159.6127 C.2     1  UNL1        0.0765
     26 N         139.8590  145.3575  160.6001 N.2     1  UNL1       -0.2639
     27 C         139.3502  144.9683  161.9565 C.3     1  UNL1        0.1707
     28 C         139.2310  143.5193  162.3254 C.2     1  UNL1        0.0832
     29 N         138.7658  142.8374  163.5780 N.2     1  UNL1       -0.2519
     30 C         140.7573  144.6869  158.2564 C.ar    1  UNL1        0.0172
     31 C         140.1718  145.8722  157.5475 C.ar    1  UNL1        0.0015
     32 C         140.6806  146.2614  156.1911 C.ar    1  UNL1        0.0000
     33 C         141.7748  145.4653  155.5437 C.ar    1  UNL1        0.0000
     34 C         142.3601  144.2801  156.2526 C.ar    1  UNL1        0.0000
     35 C         141.8514  143.8909  157.6089 C.ar    1  UNL1        0.0015
@<TRIPOS>BOND
     1    12    13    1
     2    13    14   ar
     3    14    15   ar
     4    15    16   ar
     5    16    17    1
     6    16    18   ar
     7    18    19   ar
     8    19     9    1
     9     9    10    1
    10     9    11    1
    11     9     8    1
    12     8     1    1
    13     1     2    1
    14     1    20    1
    15    20    21    1
    16    21    22    2
    17    22    23    1
    18    23    24    2
    19    24    25    1
    20    25    30    1
    21    30    31   ar
    22    31    32   ar
    23    32    33   ar
    24    33    34   ar
    25    34    35   ar
    26    25    26    2
    27    26    27    1
    28    27    28    1
    29    28    29    2
    30     1     4    1
    31     4     5    1
    32     4     6    1
    33     4     7    1
    34    19    13   ar
    35    29    21    1
    36    28    23    1
    37    35    30   ar
    38     2     3    1
@<TRIPOS>MOLECULE
*****
 35 38 0 0 0
SMALL
GASTEIGER

@<TRIPOS>ATOM
      1 C         139.3233  139.7951  165.4283 C.3     1  UNL1        0.1812
      2 O         139.7090  141.2439  165.3841 O.3     1  UNL1       -0.3784
      3 H         140.5580  141.3665  165.8369 H       1  UNL1        0.2106
      4 C         138.9377  138.3462  165.4726 C.3     1  UNL1        0.4197
      5 F         138.5521  136.8972  165.5168 F       1  UNL1       -0.1676
      6 F         137.5853  138.7222  166.0015 F       1  UNL1       -0.1676
      7 F         140.2900  137.9701  164.9436 F       1  UNL1       -0.1676
      8 C         140.5796  139.4838  166.1866 C.3     1  UNL1        0.0398
      9 C         140.9355  140.2796  167.4073 C.3     1  UNL1        0.0212
     10 C         142.2403  140.6651  166.7756 C.3     1  UNL1        0.0044
     11 C         139.6308  139.8941  168.0390 C.3     1  UNL1        0.0044
     12 C         142.4802  138.9969  169.6364 C.3     1  UNL1        0.0307
     13 C         142.0637  140.4341  169.7425 C.ar    1  UNL1       -0.0257
     14 C         142.4196  141.2298  170.9632 C.ar    1  UNL1       -0.0023
     15 C         142.0031  142.6669  171.0694 C.ar    1  UNL1        0.0293
     16 C         141.2308  143.3083  169.9548 C.ar    1  UNL1        0.1398
     17 F         140.8143  144.7454  170.0610 F       1  UNL1       -0.2042
     18 C         140.8749  142.5125  168.7341 C.ar    1  UNL1        0.0250
     19 C         141.2914  141.0754  168.6280 C.ar    1  UNL1       -0.0244
     20 C         138.0671  140.1063  164.6701 C.3     1  UNL1        0.0811
     21 C         138.1431  140.5185  163.2299 C.2     1  UNL1        0.0613
     22 C         137.7251  139.6889  162.0520 C.2     1  UNL1        0.0160
     23 C         137.9741  140.4904  160.8088 C.2     1  UNL1        0.0182
     24 C         137.7539  140.1850  159.3568 C.2     1  UNL1        0.0200
     25 C         138.1056  141.2045  158.3142 C.2     1  UNL1        0.0765
     26 N         138.6774  142.5294  158.7236 N.2     1  UNL1       -0.2639
     27 C         138.8975  142.8348  160.1756 C.3     1  UNL1        0.1707
     28 C         138.5459  141.8154  161.2182 C.2     1  UNL1        0.0832
     29 N         138.6503  141.8327  162.7145 N.2     1  UNL1       -0.2519
     30 C         137.8855  140.8990  156.8622 C.ar    1  UNL1        0.0172
     31 C         136.8178  141.6232  156.0970 C.ar    1  UNL1        0.0015
     32 C         136.5977  141.3178  154.6450 C.ar    1  UNL1        0.0000
     33 C         137.4453  140.2881  153.9583 C.ar    1  UNL1        0.0000
     34 C         138.5129  139.5640  154.7236 C.ar    1  UNL1        0.0000
     35 C         138.7331  139.8695  156.1755 C.ar    1  UNL1        0.0015
@<TRIPOS>BOND
     1    12    13    1
     2    13    14   ar
     3    14    15   ar
     4    15    16   ar
     5    16    17    1
     6    16    18   ar
     7    18    19   ar
     8    19     9    1
     9     9    10    1
    10     9    11    1
    11     9     8    1
    12     8     1    1
    13     1     2    1
    14     1    20    1
    15    20    21    1
    16    21    22    2
    17    22    23    1
    18    23    24    2
    19    24    25    1
    20    25    30    1
    21    30    31   ar
    22    31    32   ar
    23    32    33   ar
    24    33    34   ar
    25    34    35   ar
    26    25    26    2
    27    26    27    1
    28    27    28    1
    29    28    29    2
    30     1     4    1
    31     4     5    1
    32     4     6    1
    33     4     7    1
    34    19    13   ar
    35    29    21    1
    36    28    23    1
    37    35    30   ar
    38     2     3    1
@<TRIPOS>MOLECULE
*****
 35 38 0 0 0
SMALL
GASTEIGER

@<TRIPOS>ATOM
      1 C         139.5820  138.5094  165.1780 C.3     1  UNL1        0.1812
      2 O         140.7601  138.6437  164.2593 O.3     1  UNL1       -0.3784
      3 H         141.4592  139.1499  164.7018 H       1  UNL1        0.2106
      4 C         138.4039  138.3752  166.0966 C.3     1  UNL1        0.4197
      5 F         137.2258  138.2409  167.0154 F       1  UNL1       -0.1676
      6 F         138.3549  136.9019  165.8185 F       1  UNL1       -0.1676
      7 F         138.4529  139.8483  166.3748 F       1  UNL1       -0.1676
      8 C         140.3121  139.2923  166.2288 C.3     1  UNL1        0.0398
      9 C         141.4771  140.1563  165.8462 C.3     1  UNL1        0.0212
     10 C         142.4027  139.2349  166.5839 C.3     1  UNL1        0.0044
     11 C         140.5515  141.0777  165.1085 C.3     1  UNL1        0.0044
     12 C         142.2435  142.4898  167.5688 C.3     1  UNL1        0.0307
     13 C         143.0253  142.1870  166.3249 C.ar    1  UNL1       -0.0257
     14 C         144.1902  143.0510  165.9424 C.ar    1  UNL1       -0.0023
     15 C         144.9720  142.7483  164.6985 C.ar    1  UNL1        0.0293
     16 C         144.5888  141.5815  163.8372 C.ar    1  UNL1        0.1398
     17 F         145.3706  141.2788  162.5933 F       1  UNL1       -0.2042
     18 C         143.4238  140.7175  164.2197 C.ar    1  UNL1        0.0250
     19 C         142.6421  141.0203  165.4636 C.ar    1  UNL1       -0.0244
     20 C         138.8518  137.7266  164.1272 C.3     1  UNL1        0.0811
     21 C         138.8105  138.2259  162.7134 C.2     1  UNL1        0.0613
     22 C         137.9188  139.3113  162.1872 C.2     1  UNL1        0.0160
     23 C         138.2109  139.4836  160.7261 C.2     1  UNL1        0.0182
     24 C         137.6390  140.4055  159.6901 C.2     1  UNL1        0.0200
     25 C         138.1394  140.3483  158.2771 C.2     1  UNL1        0.0765
     26 N         139.2116  139.3694  157.9002 N.2     1  UNL1       -0.2639
     27 C         139.7834  138.4476  158.9362 C.3     1  UNL1        0.1707
     28 C         139.2831  138.5047  160.3491 C.2     1  UNL1        0.0832
     29 N         139.6537  137.7274  161.5773 N.2     1  UNL1       -0.2519
     30 C         137.5675  141.2702  157.2412 C.ar    1  UNL1        0.0172
     31 C         138.2252  142.5901  156.9667 C.ar    1  UNL1        0.0015
     32 C         137.6534  143.5119  155.9307 C.ar    1  UNL1        0.0000
     33 C         136.4238  143.1138  155.1692 C.ar    1  UNL1        0.0000
     34 C         135.7662  141.7939  155.4438 C.ar    1  UNL1        0.0000
     35 C         136.3380  140.8721  156.4797 C.ar    1  UNL1        0.0015
@<TRIPOS>BOND
     1    12    13    1
     2    13    14   ar
     3    14    15   ar
     4    15    16   ar
     5    16    17    1
     6    16    18   ar
     7    18    19   ar
     8    19     9    1
     9     9    10    1
    10     9    11    1
    11     9     8    1
    12     8     1    1
    13     1     2    1
    14     1    20    1
    15    20    21    1
    16    21    22    2
    17    22    23    1
    18    23    24    2
    19    24    25    1
    20    25    30    1
    21    30    31   ar
    22    31    32   ar
    23    32    33   ar
    24    33    34   ar
    25    34    35   ar
    26    25    26    2
    27    26    27    1
    28    27    28    1
    29    28    29    2
    30     1     4    1
    31     4     5    1
    32     4     6    1
    33     4     7    1
    34    19    13   ar
    35    29    21    1
    36    28    23    1
    37    35    30   ar
    38     2     3    1
@<TRIPOS>MOLECULE
*****
 35 38 0 0 0
SMALL
GASTEIGER

@<TRIPOS>ATOM
      1 C         139.5426  138.9696  165.4384 C.3     1  UNL1        0.1812
      2 O         140.7181  139.7443  164.9208 O.3     1  UNL1       -0.3784
      3 H         140.6808  140.6527  165.2589 H       1  UNL1        0.2106
      4 C         138.3671  138.1948  165.9560 C.3     1  UNL1        0.4197
      5 F         137.1914  137.4201  166.4736 F       1  UNL1       -0.1676
      6 F         139.1829  136.9364  165.9253 F       1  UNL1       -0.1676
      7 F         137.5513  139.4532  165.9867 F       1  UNL1       -0.1676
      8 C         139.0658  140.1857  166.1759 C.3     1  UNL1        0.0398
      9 C         139.9750  140.8781  167.1474 C.3     1  UNL1        0.0212
     10 C         139.6532  139.8443  168.1855 C.3     1  UNL1        0.0044
     11 C         140.2968  141.9119  166.1093 C.3     1  UNL1        0.0044
     12 C         142.6776  139.7262  167.7550 C.3     1  UNL1        0.0307
     13 C         142.2355  140.9946  168.4227 C.ar    1  UNL1       -0.0257
     14 C         143.1448  141.6870  169.3942 C.ar    1  UNL1       -0.0023
     15 C         142.7028  142.9554  170.0618 C.ar    1  UNL1        0.0293
     16 C         141.3514  143.5314  169.7580 C.ar    1  UNL1        0.1398
     17 F         140.9094  144.7998  170.4257 F       1  UNL1       -0.2042
     18 C         140.4422  142.8390  168.7865 C.ar    1  UNL1        0.0250
     19 C         140.8843  141.5705  168.1189 C.ar    1  UNL1       -0.0244
     20 C         140.0193  137.7535  164.7010 C.3     1  UNL1        0.0811
     21 C         140.6014  137.8908  163.3254 C.2     1  UNL1        0.0613
     22 C         139.8323  138.1551  162.0649 C.2     1  UNL1        0.0160
     23 C         140.8103  138.2156  160.9292 C.2     1  UNL1        0.0182
     24 C         140.6276  138.4479  159.4586 C.2     1  UNL1        0.0200
     25 C         141.8186  138.4535  158.5465 C.2     1  UNL1        0.0765
     26 N         143.1920  138.2267  159.1051 N.2     1  UNL1       -0.2639
     27 C         143.3747  137.9943  160.5756 C.3     1  UNL1        0.1707
     28 C         142.1839  137.9888  161.4877 C.2     1  UNL1        0.0832
     29 N         142.0547  137.7881  162.9687 N.2     1  UNL1       -0.2519
     30 C         141.6359  138.6858  157.0759 C.ar    1  UNL1        0.0172
     31 C         140.2950  138.4612  156.4420 C.ar    1  UNL1        0.0015
     32 C         140.1124  138.6936  154.9714 C.ar    1  UNL1        0.0000
     33 C         141.2705  139.1505  154.1347 C.ar    1  UNL1        0.0000
     34 C         142.6113  139.3751  154.7687 C.ar    1  UNL1        0.0000
     35 C         142.7940  139.1427  156.2392 C.ar    1  UNL1        0.0015
@<TRIPOS>BOND
     1    12    13    1
     2    13    14   ar
     3    14    15   ar
     4    15    16   ar
     5    16    17    1
     6    16    18   ar
     7    18    19   ar
     8    19     9    1
     9     9    10    1
    10     9    11    1
    11     9     8    1
    12     8     1    1
    13     1     2    1
    14     1    20    1
    15    20    21    1
    16    21    22    2
    17    22    23    1
    18    23    24    2
    19    24    25    1
    20    25    30    1
    21    30    31   ar
    22    31    32   ar
    23    32    33   ar
    24    33    34   ar
    25    34    35   ar
    26    25    26    2
    27    26    27    1
    28    27    28    1
    29    28    29    2
    30     1     4    1
    31     4     5    1
    32     4     6    1
    33     4     7    1
    34    19    13   ar
    35    29    21    1
    36    28    23    1
    37    35    30   ar
    38     2     3    1
