@<TRIPOS>MOLECULE
*****
 36 40 0 0 0
SMALL
GASTEIGER

@<TRIPOS>ATOM
      1 C         140.0898  139.5682  159.6793 C.ar    1  UNL1        0.1740
      2 N         140.7443  138.4812  158.8793 N.ar    1  UNL1       -0.2259
      3 C         140.7834  138.5714  157.3825 C.ar    1  UNL1        0.0830
      4 C         140.1679  139.7485  156.6857 C.ar    1  UNL1        0.0199
      5 C         139.5134  140.8355  157.4857 C.ar    1  UNL1        0.0141
      6 C         139.4744  140.7454  158.9824 C.ar    1  UNL1        0.1042
      7 C         143.3464  140.9458  162.6079 C.ar    1  UNL1        0.1681
      8 N         142.6328  140.5528  163.8674 N.ar    1  UNL1       -0.1537
      9 N         141.3114  139.9551  163.4843 N.ar    1  UNL1       -0.2061
     10 C         141.2083  139.9789  161.9881 C.ar    1  UNL1        0.1982
     11 N         140.0507  139.4782  161.1760 N.2     1  UNL1       -0.2011
     12 S         142.4659  140.5911  161.4464 S.2     1  UNL1       -0.0250
     13 C         140.2750  139.4266  164.4313 C.ar    1  UNL1        0.0850
     14 C         139.8902  137.9774  164.3893 C.ar    1  UNL1        0.0201
     15 C         138.8539  137.4490  165.3363 C.ar    1  UNL1        0.0129
     16 C         138.2024  138.3697  166.3252 C.ar    1  UNL1        0.0578
     17 CL        137.1660  137.8411  167.2721 Cl      1  UNL1       -0.0822
     18 C         138.5872  139.8188  166.3671 C.ar    1  UNL1        0.0129
     19 C         139.6235  140.3473  165.4202 C.ar    1  UNL1        0.0201
     20 C         145.6710  141.4344  163.6603 C.3     1  UNL1        0.0796
     21 C         144.7022  141.5819  162.5246 C.2     1  UNL1        0.1989
     22 O         145.0894  142.3655  161.3055 O.2     1  UNL1       -0.2891
     23 C         141.4379  137.4844  156.5825 C.ar    1  UNL1        0.0177
     24 C         142.9007  137.2017  156.7571 C.ar    1  UNL1        0.0015
     25 C         143.5552  136.1147  155.9571 C.ar    1  UNL1        0.0000
     26 C         142.7470  135.3103  154.9825 C.ar    1  UNL1        0.0000
     27 C         141.2843  135.5930  154.8079 C.ar    1  UNL1        0.0000
     28 C         140.6296  136.6800  155.6079 C.ar    1  UNL1        0.0015
     29 C         138.8979  142.0127  156.7888 C.ar    1  UNL1        0.0008
     30 C         137.4532  141.9753  156.3870 C.ar    1  UNL1        0.0000
     31 C         136.8379  143.1524  155.6901 C.ar    1  UNL1        0.0000
     32 C         137.6672  144.3670  155.3951 C.ar    1  UNL1        0.0000
     33 C         139.1118  144.4044  155.7970 C.ar    1  UNL1        0.0000
     34 C         139.7272  143.2273  156.4938 C.ar    1  UNL1        0.0000
     35 C         138.8198  141.8325  159.7824 C.1     1  UNL1        0.1035
     36 N         138.1653  142.9195  160.5824 N.1     1  UNL1       -0.1907
@<TRIPOS>BOND
     1    20    21    1
     2    21    22    2
     3    21     7    1
     4     7     8   ar
     5     8     9   ar
     6     9    13    1
     7    13    14   ar
     8    14    15   ar
     9    15    16   ar
    10    16    17    1
    11    16    18   ar
    12    18    19   ar
    13     9    10   ar
    14    10    11    2
    15    11     1    1
    16     1     2   ar
    17     2     3   ar
    18     3    23    1
    19    23    24   ar
    20    24    25   ar
    21    25    26   ar
    22    26    27   ar
    23    27    28   ar
    24     3     4   ar
    25     4     5   ar
    26     5    29    1
    27    29    30   ar
    28    30    31   ar
    29    31    32   ar
    30    32    33   ar
    31    33    34   ar
    32     5     6   ar
    33     6    35    1
    34    35    36    3
    35    10    12   ar
    36    12     7   ar
    37    19    13   ar
    38     6     1   ar
    39    28    23   ar
    40    34    29   ar
@<TRIPOS>MOLECULE
*****
 36 40 0 0 0
SMALL
GASTEIGER

@<TRIPOS>ATOM
      1 C         140.8305  139.3888  161.2204 C.ar    1  UNL1        0.1740
      2 N         140.0185  138.7894  162.3300 N.ar    1  UNL1       -0.2259
      3 C         139.9349  139.4830  163.6574 C.ar    1  UNL1        0.0830
      4 C         140.6634  140.7761  163.8751 C.ar    1  UNL1        0.0199
      5 C         141.4754  141.3755  162.7654 C.ar    1  UNL1        0.0141
      6 C         141.5589  140.6819  161.4381 C.ar    1  UNL1        0.1042
      7 C         138.2582  140.2224  157.5098 C.ar    1  UNL1        0.1681
      8 N         138.8873  139.1915  156.6202 N.ar    1  UNL1       -0.1537
      9 N         139.9588  138.4939  157.4047 N.ar    1  UNL1       -0.2061
     10 C         139.9919  139.0937  158.7791 C.ar    1  UNL1        0.1982
     11 N         140.9141  138.6953  159.8930 N.2     1  UNL1       -0.2011
     12 S         138.9409  140.1620  158.8441 S.2     1  UNL1       -0.0250
     13 C         140.8421  137.3903  156.9028 C.ar    1  UNL1        0.0850
     14 C         140.3350  136.4398  155.8590 C.ar    1  UNL1        0.0201
     15 C         141.2183  135.3362  155.3571 C.ar    1  UNL1        0.0129
     16 C         142.6086  135.1831  155.8991 C.ar    1  UNL1        0.0578
     17 CL        143.4919  134.0794  155.3971 Cl      1  UNL1       -0.0822
     18 C         143.1156  136.1335  156.9428 C.ar    1  UNL1        0.0129
     19 C         142.2323  137.2371  157.4447 C.ar    1  UNL1        0.0201
     20 C         137.3866  142.6293  157.0659 C.3     1  UNL1        0.0796
     21 C         137.1424  141.1508  157.1315 C.2     1  UNL1        0.1989
     22 O         135.7824  140.6006  156.8189 O.2     1  UNL1       -0.2891
     23 C         139.1229  138.8836  164.7670 C.ar    1  UNL1        0.0177
     24 C         138.8790  137.4040  164.8031 C.ar    1  UNL1        0.0015
     25 C         138.0670  136.8046  165.9127 C.ar    1  UNL1        0.0000
     26 C         137.4989  137.6847  166.9864 C.ar    1  UNL1        0.0000
     27 C         137.7428  139.1643  166.9503 C.ar    1  UNL1        0.0000
     28 C         138.5549  139.7638  165.8406 C.ar    1  UNL1        0.0015
     29 C         142.2039  142.6686  162.9832 C.ar    1  UNL1        0.0008
     30 C         143.7034  142.6889  163.0127 C.ar    1  UNL1        0.0000
     31 C         144.4318  143.9820  163.2305 C.ar    1  UNL1        0.0000
     32 C         143.6606  145.2547  163.4188 C.ar    1  UNL1        0.0000
     33 C         142.1610  145.2343  163.3893 C.ar    1  UNL1        0.0000
     34 C         141.4327  143.9412  163.1716 C.ar    1  UNL1        0.0000
     35 C         142.3710  141.2814  160.3284 C.1     1  UNL1        0.1035
     36 N         143.1830  141.8808  159.2188 N.1     1  UNL1       -0.1907
@<TRIPOS>BOND
     1    20    21    1
     2    21    22    2
     3    21     7    1
     4     7     8   ar
     5     8     9   ar
     6     9    13    1
     7    13    14   ar
     8    14    15   ar
     9    15    16   ar
    10    16    17    1
    11    16    18   ar
    12    18    19   ar
    13     9    10   ar
    14    10    11    2
    15    11     1    1
    16     1     2   ar
    17     2     3   ar
    18     3    23    1
    19    23    24   ar
    20    24    25   ar
    21    25    26   ar
    22    26    27   ar
    23    27    28   ar
    24     3     4   ar
    25     4     5   ar
    26     5    29    1
    27    29    30   ar
    28    30    31   ar
    29    31    32   ar
    30    32    33   ar
    31    33    34   ar
    32     5     6   ar
    33     6    35    1
    34    35    36    3
    35    10    12   ar
    36    12     7   ar
    37    19    13   ar
    38     6     1   ar
    39    28    23   ar
    40    34    29   ar
@<TRIPOS>MOLECULE
*****
 36 40 0 0 0
SMALL
GASTEIGER

@<TRIPOS>ATOM
      1 C         144.6630  141.2175  157.6008 C.ar    1  UNL1        0.1740
      2 N         145.8477  141.8138  156.9002 N.ar    1  UNL1       -0.2259
      3 C         146.3432  141.2109  155.6192 C.ar    1  UNL1        0.0830
      4 C         145.6541  140.0116  155.0388 C.ar    1  UNL1        0.0199
      5 C         144.4694  139.4153  155.7395 C.ar    1  UNL1        0.0141
      6 C         143.9738  140.0182  157.0203 C.ar    1  UNL1        0.1042
      7 C         141.7971  144.7772  158.0425 C.ar    1  UNL1        0.1681
      8 N         141.7672  144.7984  159.5420 N.ar    1  UNL1       -0.1537
      9 N         142.6515  143.6934  160.0389 N.ar    1  UNL1       -0.2061
     10 C         143.2279  142.9892  158.8465 C.ar    1  UNL1        0.1982
     11 N         144.1674  141.8204  158.8817 N.2     1  UNL1       -0.2011
     12 S         142.6998  143.6590  157.6126 S.2     1  UNL1       -0.0250
     13 C         142.9135  143.3524  161.4760 C.ar    1  UNL1        0.0850
     14 C         141.8168  142.7769  162.3222 C.ar    1  UNL1        0.0201
     15 C         142.0787  142.4360  163.7592 C.ar    1  UNL1        0.0129
     16 C         143.4374  142.6705  164.3501 C.ar    1  UNL1        0.0578
     17 CL        143.6993  142.3295  165.7872 Cl      1  UNL1       -0.0822
     18 C         144.5341  143.2459  163.5039 C.ar    1  UNL1        0.0129
     19 C         144.2721  143.5869  162.0669 C.ar    1  UNL1        0.0201
     20 C         141.4368  145.8090  155.6854 C.3     1  UNL1        0.0796
     21 C         141.0546  145.7103  157.1325 C.2     1  UNL1        0.1989
     22 O         139.9298  146.5448  157.6698 O.2     1  UNL1       -0.2891
     23 C         147.5279  141.8072  154.9185 C.ar    1  UNL1        0.0177
     24 C         147.3235  142.7554  153.7743 C.ar    1  UNL1        0.0015
     25 C         148.5081  143.3517  153.0737 C.ar    1  UNL1        0.0000
     26 C         149.8973  142.9999  153.5172 C.ar    1  UNL1        0.0000
     27 C         150.1016  142.0518  154.6614 C.ar    1  UNL1        0.0000
     28 C         148.9170  141.4553  155.3621 C.ar    1  UNL1        0.0015
     29 C         143.7803  138.2160  155.1590 C.ar    1  UNL1        0.0008
     30 C         142.7021  138.3946  154.1315 C.ar    1  UNL1        0.0000
     31 C         142.0131  137.1953  153.5512 C.ar    1  UNL1        0.0000
     32 C         142.4021  135.8173  153.9983 C.ar    1  UNL1        0.0000
     33 C         143.4803  135.6387  155.0258 C.ar    1  UNL1        0.0000
     34 C         144.1693  136.8381  155.6062 C.ar    1  UNL1        0.0000
     35 C         142.7891  139.4218  157.7210 C.1     1  UNL1        0.1035
     36 N         141.6044  138.8255  158.4216 N.1     1  UNL1       -0.1907
@<TRIPOS>BOND
     1    20    21    1
     2    21    22    2
     3    21     7    1
     4     7     8   ar
     5     8     9   ar
     6     9    13    1
     7    13    14   ar
     8    14    15   ar
     9    15    16   ar
    10    16    17    1
    11    16    18   ar
    12    18    19   ar
    13     9    10   ar
    14    10    11    2
    15    11     1    1
    16     1     2   ar
    17     2     3   ar
    18     3    23    1
    19    23    24   ar
    20    24    25   ar
    21    25    26   ar
    22    26    27   ar
    23    27    28   ar
    24     3     4   ar
    25     4     5   ar
    26     5    29    1
    27    29    30   ar
    28    30    31   ar
    29    31    32   ar
    30    32    33   ar
    31    33    34   ar
    32     5     6   ar
    33     6    35    1
    34    35    36    3
    35    10    12   ar
    36    12     7   ar
    37    19    13   ar
    38     6     1   ar
    39    28    23   ar
    40    34    29   ar
@<TRIPOS>MOLECULE
*****
 36 40 0 0 0
SMALL
GASTEIGER

@<TRIPOS>ATOM
      1 C         141.7125  144.9670  158.0933 C.ar    1  UNL1        0.1740
      2 N         142.7276  144.1878  157.3108 N.ar    1  UNL1       -0.2259
      3 C         143.5786  143.1618  157.9986 C.ar    1  UNL1        0.0830
      4 C         143.4145  142.9150  159.4690 C.ar    1  UNL1        0.0199
      5 C         142.3994  143.6942  160.2516 C.ar    1  UNL1        0.0141
      6 C         141.5485  144.7201  159.5638 C.ar    1  UNL1        0.1042
      7 C         138.1790  144.1720  155.2716 C.ar    1  UNL1        0.1681
      8 N         137.8444  145.6077  154.9943 N.ar    1  UNL1       -0.1537
      9 N         138.8086  146.4646  155.7600 N.ar    1  UNL1       -0.2061
     10 C         139.7390  145.5585  156.5105 C.ar    1  UNL1        0.1982
     11 N         140.8615  145.9930  157.4056 N.2     1  UNL1       -0.2011
     12 S         139.3500  144.1416  156.2086 S.2     1  UNL1       -0.0250
     13 C         138.8372  147.9643  155.7729 C.ar    1  UNL1        0.0850
     14 C         138.3970  148.7124  156.9962 C.ar    1  UNL1        0.0201
     15 C         138.4256  150.2120  157.0091 C.ar    1  UNL1        0.0129
     16 C         138.8944  150.9636  155.7986 C.ar    1  UNL1        0.0578
     17 CL        138.9231  152.4633  155.8114 Cl      1  UNL1       -0.0822
     18 C         139.3346  150.2156  154.5752 C.ar    1  UNL1        0.0129
     19 C         139.3060  148.7159  154.5624 C.ar    1  UNL1        0.0201
     20 C         136.3380  143.1628  153.7411 C.3     1  UNL1        0.0796
     21 C         137.4676  142.9767  154.7104 C.2     1  UNL1        0.1989
     22 O         137.8858  141.5952  155.1185 O.2     1  UNL1       -0.2891
     23 C         144.5938  142.3827  157.2161 C.ar    1  UNL1        0.0177
     24 C         144.1713  141.1749  156.4330 C.ar    1  UNL1        0.0015
     25 C         145.1864  140.3958  155.6505 C.ar    1  UNL1        0.0000
     26 C         146.6239  140.8242  155.6509 C.ar    1  UNL1        0.0000
     27 C         147.0463  142.0318  156.4339 C.ar    1  UNL1        0.0000
     28 C         146.0313  142.8111  157.2165 C.ar    1  UNL1        0.0015
     29 C         142.2354  143.4473  161.7221 C.ar    1  UNL1        0.0008
     30 C         143.0130  144.2641  162.7111 C.ar    1  UNL1        0.0000
     31 C         142.8489  144.0171  164.1815 C.ar    1  UNL1        0.0000
     32 C         141.9072  142.9535  164.6629 C.ar    1  UNL1        0.0000
     33 C         141.1295  142.1367  163.6738 C.ar    1  UNL1        0.0000
     34 C         141.2936  142.3836  162.2034 C.ar    1  UNL1        0.0000
     35 C         140.5333  145.4993  160.3464 C.1     1  UNL1        0.1035
     36 N         139.5182  146.2785  161.1290 N.1     1  UNL1       -0.1907
@<TRIPOS>BOND
     1    20    21    1
     2    21    22    2
     3    21     7    1
     4     7     8   ar
     5     8     9   ar
     6     9    13    1
     7    13    14   ar
     8    14    15   ar
     9    15    16   ar
    10    16    17    1
    11    16    18   ar
    12    18    19   ar
    13     9    10   ar
    14    10    11    2
    15    11     1    1
    16     1     2   ar
    17     2     3   ar
    18     3    23    1
    19    23    24   ar
    20    24    25   ar
    21    25    26   ar
    22    26    27   ar
    23    27    28   ar
    24     3     4   ar
    25     4     5   ar
    26     5    29    1
    27    29    30   ar
    28    30    31   ar
    29    31    32   ar
    30    32    33   ar
    31    33    34   ar
    32     5     6   ar
    33     6    35    1
    34    35    36    3
    35    10    12   ar
    36    12     7   ar
    37    19    13   ar
    38     6     1   ar
    39    28    23   ar
    40    34    29   ar
@<TRIPOS>MOLECULE
*****
 36 40 0 0 0
SMALL
GASTEIGER

@<TRIPOS>ATOM
      1 C         139.6455  139.4015  159.2025 C.ar    1  UNL1        0.1740
      2 N         138.5697  139.9880  158.3374 N.ar    1  UNL1       -0.2259
      3 C         138.6647  139.8781  156.8444 C.ar    1  UNL1        0.0830
      4 C         139.8355  139.1818  156.2166 C.ar    1  UNL1        0.0199
      5 C         140.9114  138.5953  157.0818 C.ar    1  UNL1        0.0141
      6 C         140.8164  138.7051  158.5747 C.ar    1  UNL1        0.1042
      7 C         141.4993  142.6640  161.8483 C.ar    1  UNL1        0.1681
      8 N         141.0029  142.1340  163.1608 N.ar    1  UNL1       -0.1537
      9 N         140.2125  140.8884  162.8887 N.ar    1  UNL1       -0.2061
     10 C         140.2204  140.6487  161.4080 C.ar    1  UNL1        0.1982
     11 N         139.5506  139.5113  160.6955 N.2     1  UNL1       -0.2011
     12 S         141.0156  141.7460  160.7650 S.2     1  UNL1       -0.0250
     13 C         139.5335  140.0329  163.9169 C.ar    1  UNL1        0.0850
     14 C         139.6974  138.5424  163.8791 C.ar    1  UNL1        0.0201
     15 C         139.0184  137.6870  164.9073 C.ar    1  UNL1        0.0129
     16 C         138.1754  138.3220  165.9731 C.ar    1  UNL1        0.0578
     17 CL        137.4964  137.4665  167.0013 Cl      1  UNL1       -0.0822
     18 C         138.0115  139.8125  166.0109 C.ar    1  UNL1        0.0129
     19 C         138.6905  140.6680  164.9827 C.ar    1  UNL1        0.0201
     20 C         143.3707  144.2676  162.6703 C.3     1  UNL1        0.0796
     21 C         142.3328  143.8956  161.6533 C.2     1  UNL1        0.1989
     22 O         142.1286  144.7553  160.4411 O.2     1  UNL1       -0.2891
     23 C         137.5888  140.4646  155.9793 C.ar    1  UNL1        0.0177
     24 C         137.1543  141.8859  156.1829 C.ar    1  UNL1        0.0015
     25 C         136.0784  142.4724  155.3177 C.ar    1  UNL1        0.0000
     26 C         135.4371  141.6378  154.2489 C.ar    1  UNL1        0.0000
     27 C         135.8717  140.2166  154.0454 C.ar    1  UNL1        0.0000
     28 C         136.9476  139.6300  154.9105 C.ar    1  UNL1        0.0015
     29 C         142.0823  137.8989  156.4539 C.ar    1  UNL1        0.0008
     30 C         143.2318  138.6996  155.9176 C.ar    1  UNL1        0.0000
     31 C         144.4026  138.0032  155.2898 C.ar    1  UNL1        0.0000
     32 C         144.4239  136.5061  155.1982 C.ar    1  UNL1        0.0000
     33 C         143.2744  135.7055  155.7345 C.ar    1  UNL1        0.0000
     34 C         142.1036  136.4019  156.3624 C.ar    1  UNL1        0.0000
     35 C         141.8924  138.1186  159.4399 C.1     1  UNL1        0.1035
     36 N         142.9682  137.5321  160.3050 N.1     1  UNL1       -0.1907
@<TRIPOS>BOND
     1    20    21    1
     2    21    22    2
     3    21     7    1
     4     7     8   ar
     5     8     9   ar
     6     9    13    1
     7    13    14   ar
     8    14    15   ar
     9    15    16   ar
    10    16    17    1
    11    16    18   ar
    12    18    19   ar
    13     9    10   ar
    14    10    11    2
    15    11     1    1
    16     1     2   ar
    17     2     3   ar
    18     3    23    1
    19    23    24   ar
    20    24    25   ar
    21    25    26   ar
    22    26    27   ar
    23    27    28   ar
    24     3     4   ar
    25     4     5   ar
    26     5    29    1
    27    29    30   ar
    28    30    31   ar
    29    31    32   ar
    30    32    33   ar
    31    33    34   ar
    32     5     6   ar
    33     6    35    1
    34    35    36    3
    35    10    12   ar
    36    12     7   ar
    37    19    13   ar
    38     6     1   ar
    39    28    23   ar
    40    34    29   ar
@<TRIPOS>MOLECULE
*****
 36 40 0 0 0
SMALL
GASTEIGER

@<TRIPOS>ATOM
      1 C         143.1434  139.9562  158.9415 C.ar    1  UNL1        0.1740
      2 N         144.3102  140.4905  158.1650 N.ar    1  UNL1       -0.2259
      3 C         144.3159  140.4071  156.6673 C.ar    1  UNL1        0.0830
      4 C         143.1547  139.7895  155.9461 C.ar    1  UNL1        0.0199
      5 C         141.9878  139.2552  156.7226 C.ar    1  UNL1        0.0141
      6 C         141.9821  139.3386  158.2202 C.ar    1  UNL1        0.1042
      7 C         141.7660  143.5129  161.4974 C.ar    1  UNL1        0.1681
      8 N         142.0401  142.8899  162.8341 N.ar    1  UNL1       -0.1537
      9 N         142.5873  141.5129  162.6004 N.ar    1  UNL1       -0.2061
     10 C         142.6513  141.2849  161.1192 C.ar    1  UNL1        0.1982
     11 N         143.1376  140.0395  160.4391 N.2     1  UNL1       -0.2011
     12 S         142.1438  142.5209  160.4375 S.2     1  UNL1       -0.0250
     13 C         142.9982  140.5356  163.6615 C.ar    1  UNL1        0.0850
     14 C         144.4392  140.1435  163.8025 C.ar    1  UNL1        0.0201
     15 C         144.8501  139.1662  164.8637 C.ar    1  UNL1        0.0129
     16 C         143.8200  138.5811  165.7838 C.ar    1  UNL1        0.0578
     17 CL        144.2310  137.6037  166.8450 Cl      1  UNL1       -0.0822
     18 C         142.3791  138.9732  165.6428 C.ar    1  UNL1        0.0129
     19 C         141.9682  139.9505  164.5817 C.ar    1  UNL1        0.0201
     20 C         140.4642  145.5912  162.3551 C.3     1  UNL1        0.0796
     21 C         141.2115  144.8865  161.2620 C.2     1  UNL1        0.1989
     22 O         141.4043  145.5555  159.9333 O.2     1  UNL1       -0.2891
     23 C         145.4828  140.9414  155.8908 C.ar    1  UNL1        0.0177
     24 C         145.6655  140.5572  154.4523 C.ar    1  UNL1        0.0015
     25 C         146.8324  141.0914  153.6759 C.ar    1  UNL1        0.0000
     26 C         147.8165  142.0099  154.3377 C.ar    1  UNL1        0.0000
     27 C         147.6337  142.3940  155.7761 C.ar    1  UNL1        0.0000
     28 C         146.4669  141.8598  156.5527 C.ar    1  UNL1        0.0015
     29 C         140.8266  138.6376  156.0013 C.ar    1  UNL1        0.0008
     30 C         139.6674  139.4901  155.5777 C.ar    1  UNL1        0.0000
     31 C         138.5062  138.8724  154.8564 C.ar    1  UNL1        0.0000
     32 C         138.5043  137.4023  154.5588 C.ar    1  UNL1        0.0000
     33 C         139.6635  136.5498  154.9824 C.ar    1  UNL1        0.0000
     34 C         140.8247  137.1674  155.7037 C.ar    1  UNL1        0.0000
     35 C         140.8152  138.8043  158.9967 C.1     1  UNL1        0.1035
     36 N         139.6483  138.2700  159.7732 N.1     1  UNL1       -0.1907
@<TRIPOS>BOND
     1    20    21    1
     2    21    22    2
     3    21     7    1
     4     7     8   ar
     5     8     9   ar
     6     9    13    1
     7    13    14   ar
     8    14    15   ar
     9    15    16   ar
    10    16    17    1
    11    16    18   ar
    12    18    19   ar
    13     9    10   ar
    14    10    11    2
    15    11     1    1
    16     1     2   ar
    17     2     3   ar
    18     3    23    1
    19    23    24   ar
    20    24    25   ar
    21    25    26   ar
    22    26    27   ar
    23    27    28   ar
    24     3     4   ar
    25     4     5   ar
    26     5    29    1
    27    29    30   ar
    28    30    31   ar
    29    31    32   ar
    30    32    33   ar
    31    33    34   ar
    32     5     6   ar
    33     6    35    1
    34    35    36    3
    35    10    12   ar
    36    12     7   ar
    37    19    13   ar
    38     6     1   ar
    39    28    23   ar
    40    34    29   ar
@<TRIPOS>MOLECULE
*****
 36 40 0 0 0
SMALL
GASTEIGER

@<TRIPOS>ATOM
      1 C         139.5184  138.7275  156.9926 C.ar    1  UNL1        0.1740
      2 N         139.3387  139.2359  158.3923 N.ar    1  UNL1       -0.2259
      3 C         138.3782  140.3550  158.6662 C.ar    1  UNL1        0.0830
      4 C         137.5975  140.9658  157.5405 C.ar    1  UNL1        0.0199
      5 C         137.7772  140.4574  156.1407 C.ar    1  UNL1        0.0141
      6 C         138.7376  139.3383  155.8668 C.ar    1  UNL1        0.1042
      7 C         143.9826  139.1116  155.9911 C.ar    1  UNL1        0.1681
      8 N         144.2629  137.6442  155.8555 N.ar    1  UNL1       -0.1537
      9 N         142.9844  136.9025  156.1115 N.ar    1  UNL1       -0.2061
     10 C         141.9141  137.9114  156.4053 C.ar    1  UNL1        0.1982
     11 N         140.4788  137.6084  156.7186 N.2     1  UNL1       -0.2011
     12 S         142.5309  139.2767  156.3309 S.2     1  UNL1       -0.0250
     13 C         142.8075  135.4133  156.0793 C.ar    1  UNL1        0.0850
     14 C         142.0755  134.7694  154.9394 C.ar    1  UNL1        0.0201
     15 C         141.8986  133.2803  154.9073 C.ar    1  UNL1        0.0129
     16 C         142.4537  132.4350  156.0151 C.ar    1  UNL1        0.0578
     17 CL        142.2768  130.9457  155.9830 Cl      1  UNL1       -0.0822
     18 C         143.1857  133.0788  157.1551 C.ar    1  UNL1        0.0129
     19 C         143.3626  134.5680  157.1872 C.ar    1  UNL1        0.0201
     20 C         145.5255  140.5297  154.4553 C.3     1  UNL1        0.0796
     21 C         144.9790  140.2192  155.8173 C.2     1  UNL1        0.1989
     22 O         145.4289  141.0165  157.0056 O.2     1  UNL1       -0.2891
     23 C         138.1985  140.8634  160.0660 C.ar    1  UNL1        0.0177
     24 C         137.8677  139.9080  161.1741 C.ar    1  UNL1        0.0015
     25 C         137.6880  140.4164  162.5739 C.ar    1  UNL1        0.0000
     26 C         137.8390  141.8801  162.8655 C.ar    1  UNL1        0.0000
     27 C         138.1698  142.8353  161.7573 C.ar    1  UNL1        0.0000
     28 C         138.3495  142.3270  160.3575 C.ar    1  UNL1        0.0015
     29 C         136.9964  141.0682  155.0150 C.ar    1  UNL1        0.0008
     30 C         137.5312  142.2723  154.2980 C.ar    1  UNL1        0.0000
     31 C         136.7503  142.8831  153.1722 C.ar    1  UNL1        0.0000
     32 C         135.4347  142.2897  152.7635 C.ar    1  UNL1        0.0000
     33 C         134.9000  141.0856  153.4805 C.ar    1  UNL1        0.0000
     34 C         135.6808  140.4748  154.6062 C.ar    1  UNL1        0.0000
     35 C         138.9173  138.8299  154.4670 C.1     1  UNL1        0.1035
     36 N         139.0970  138.3215  153.0673 N.1     1  UNL1       -0.1907
@<TRIPOS>BOND
     1    20    21    1
     2    21    22    2
     3    21     7    1
     4     7     8   ar
     5     8     9   ar
     6     9    13    1
     7    13    14   ar
     8    14    15   ar
     9    15    16   ar
    10    16    17    1
    11    16    18   ar
    12    18    19   ar
    13     9    10   ar
    14    10    11    2
    15    11     1    1
    16     1     2   ar
    17     2     3   ar
    18     3    23    1
    19    23    24   ar
    20    24    25   ar
    21    25    26   ar
    22    26    27   ar
    23    27    28   ar
    24     3     4   ar
    25     4     5   ar
    26     5    29    1
    27    29    30   ar
    28    30    31   ar
    29    31    32   ar
    30    32    33   ar
    31    33    34   ar
    32     5     6   ar
    33     6    35    1
    34    35    36    3
    35    10    12   ar
    36    12     7   ar
    37    19    13   ar
    38     6     1   ar
    39    28    23   ar
    40    34    29   ar
@<TRIPOS>MOLECULE
*****
 36 40 0 0 0
SMALL
GASTEIGER

@<TRIPOS>ATOM
      1 C         142.2881  138.1950  157.2252 C.ar    1  UNL1        0.1740
      2 N         143.0058  136.8819  157.3276 N.ar    1  UNL1       -0.2259
      3 C         142.5935  135.7320  156.4571 C.ar    1  UNL1        0.0830
      4 C         141.4636  135.8952  155.4842 C.ar    1  UNL1        0.0199
      5 C         140.7459  137.2084  155.3818 C.ar    1  UNL1        0.0141
      6 C         141.1581  138.3582  156.2522 C.ar    1  UNL1        0.1042
      7 C         145.6320  141.2267  156.3838 C.ar    1  UNL1        0.1681
      8 N         145.4606  142.0347  157.6359 N.ar    1  UNL1       -0.1537
      9 N         144.3416  141.4282  158.4295 N.ar    1  UNL1       -0.2061
     10 C         143.8213  140.2453  157.6680 C.ar    1  UNL1        0.1982
     11 N         142.7003  139.3450  158.0956 N.2     1  UNL1       -0.2011
     12 S         144.6187  140.1207  156.4037 S.2     1  UNL1       -0.0250
     13 C         143.8322  141.9185  159.7525 C.ar    1  UNL1        0.0850
     14 C         143.0457  143.1936  159.8275 C.ar    1  UNL1        0.0201
     15 C         142.5365  143.6839  161.1505 C.ar    1  UNL1        0.0129
     16 C         142.8137  142.8991  162.3984 C.ar    1  UNL1        0.0578
     17 CL        142.3043  143.3895  163.7214 Cl      1  UNL1       -0.0822
     18 C         143.6001  141.6241  162.3234 C.ar    1  UNL1        0.0129
     19 C         144.1094  141.1338  161.0004 C.ar    1  UNL1        0.0201
     20 C         147.9797  142.0594  155.6458 C.3     1  UNL1        0.0796
     21 C         146.6395  141.4801  155.3019 C.2     1  UNL1        0.1989
     22 O         146.3069  141.1541  153.8760 O.2     1  UNL1       -0.2891
     23 C         143.3112  134.4188  156.5595 C.ar    1  UNL1        0.0177
     24 C         143.3143  133.4731  155.3951 C.ar    1  UNL1        0.0015
     25 C         144.0320  132.1599  155.4975 C.ar    1  UNL1        0.0000
     26 C         144.7466  131.7924  156.7641 C.ar    1  UNL1        0.0000
     27 C         144.7435  132.7381  157.9284 C.ar    1  UNL1        0.0000
     28 C         144.0258  134.0514  157.8261 C.ar    1  UNL1        0.0015
     29 C         139.6159  137.3716  154.4089 C.ar    1  UNL1        0.0008
     30 C         138.2010  137.4237  154.9044 C.ar    1  UNL1        0.0000
     31 C         137.0711  137.5869  153.9315 C.ar    1  UNL1        0.0000
     32 C         137.3560  137.6980  152.4630 C.ar    1  UNL1        0.0000
     33 C         138.7708  137.6458  151.9675 C.ar    1  UNL1        0.0000
     34 C         139.9008  137.4827  152.9404 C.ar    1  UNL1        0.0000
     35 C         140.4404  139.6715  156.1498 C.1     1  UNL1        0.1035
     36 N         139.7226  140.9846  156.0474 N.1     1  UNL1       -0.1907
@<TRIPOS>BOND
     1    20    21    1
     2    21    22    2
     3    21     7    1
     4     7     8   ar
     5     8     9   ar
     6     9    13    1
     7    13    14   ar
     8    14    15   ar
     9    15    16   ar
    10    16    17    1
    11    16    18   ar
    12    18    19   ar
    13     9    10   ar
    14    10    11    2
    15    11     1    1
    16     1     2   ar
    17     2     3   ar
    18     3    23    1
    19    23    24   ar
    20    24    25   ar
    21    25    26   ar
    22    26    27   ar
    23    27    28   ar
    24     3     4   ar
    25     4     5   ar
    26     5    29    1
    27    29    30   ar
    28    30    31   ar
    29    31    32   ar
    30    32    33   ar
    31    33    34   ar
    32     5     6   ar
    33     6    35    1
    34    35    36    3
    35    10    12   ar
    36    12     7   ar
    37    19    13   ar
    38     6     1   ar
    39    28    23   ar
    40    34    29   ar
@<TRIPOS>MOLECULE
*****
 36 40 0 0 0
SMALL
GASTEIGER

@<TRIPOS>ATOM
      1 C         140.4464  140.5904  157.0364 C.ar    1  UNL1        0.1740
      2 N         139.3229  140.6874  156.0473 N.ar    1  UNL1       -0.2259
      3 C         137.9053  140.7788  156.5290 C.ar    1  UNL1        0.0830
      4 C         137.6112  140.7733  157.9999 C.ar    1  UNL1        0.0199
      5 C         138.7346  140.6763  158.9890 C.ar    1  UNL1        0.0141
      6 C         140.1522  140.5849  158.5073 C.ar    1  UNL1        0.1042
      7 C         142.8916  136.7600  156.3813 C.ar    1  UNL1        0.1681
      8 N         144.1516  137.4288  155.9174 N.ar    1  UNL1       -0.1537
      9 N         143.9200  138.9108  155.9259 N.ar    1  UNL1       -0.2061
     10 C         142.5169  139.1580  156.3951 C.ar    1  UNL1        0.1982
     11 N         141.8639  140.4989  156.5548 N.2     1  UNL1       -0.2011
     12 S         141.8813  137.8288  156.6765 S.2     1  UNL1       -0.0250
     13 C         144.9166  139.9612  155.5340 C.ar    1  UNL1        0.0850
     14 C         145.4838  140.8819  156.5735 C.ar    1  UNL1        0.0201
     15 C         146.4804  141.9322  156.1815 C.ar    1  UNL1        0.0129
     16 C         146.9097  142.0618  154.7501 C.ar    1  UNL1        0.0578
     17 CL        147.9063  143.1122  154.3583 Cl      1  UNL1       -0.0822
     18 C         146.3425  141.1412  153.7107 C.ar    1  UNL1        0.0129
     19 C         145.3459  140.0908  154.1026 C.ar    1  UNL1        0.0201
     20 C         141.7789  134.5575  155.5686 C.3     1  UNL1        0.0796
     21 C         142.6792  135.2821  156.5248 C.2     1  UNL1        0.1989
     22 O         143.3672  134.5289  157.6245 O.2     1  UNL1       -0.2891
     23 C         136.7818  140.8758  155.5399 C.ar    1  UNL1        0.0177
     24 C         137.0797  140.9501  154.0716 C.ar    1  UNL1        0.0015
     25 C         135.9562  141.0470  153.0825 C.ar    1  UNL1        0.0000
     26 C         134.5349  141.0697  153.5615 C.ar    1  UNL1        0.0000
     27 C         134.2371  140.9955  155.0298 C.ar    1  UNL1        0.0000
     28 C         135.3606  140.8985  156.0190 C.ar    1  UNL1        0.0015
     29 C         138.4404  140.6708  160.4599 C.ar    1  UNL1        0.0008
     30 C         138.3723  139.3715  161.2064 C.ar    1  UNL1        0.0000
     31 C         138.0781  139.3660  162.6772 C.ar    1  UNL1        0.0000
     32 C         137.8521  140.6598  163.4016 C.ar    1  UNL1        0.0000
     33 C         137.9202  141.9592  162.6552 C.ar    1  UNL1        0.0000
     34 C         138.2144  141.9646  161.1843 C.ar    1  UNL1        0.0000
     35 C         141.2757  140.4879  159.4965 C.1     1  UNL1        0.1035
     36 N         142.3992  140.3909  160.4856 N.1     1  UNL1       -0.1907
@<TRIPOS>BOND
     1    20    21    1
     2    21    22    2
     3    21     7    1
     4     7     8   ar
     5     8     9   ar
     6     9    13    1
     7    13    14   ar
     8    14    15   ar
     9    15    16   ar
    10    16    17    1
    11    16    18   ar
    12    18    19   ar
    13     9    10   ar
    14    10    11    2
    15    11     1    1
    16     1     2   ar
    17     2     3   ar
    18     3    23    1
    19    23    24   ar
    20    24    25   ar
    21    25    26   ar
    22    26    27   ar
    23    27    28   ar
    24     3     4   ar
    25     4     5   ar
    26     5    29    1
    27    29    30   ar
    28    30    31   ar
    29    31    32   ar
    30    32    33   ar
    31    33    34   ar
    32     5     6   ar
    33     6    35    1
    34    35    36    3
    35    10    12   ar
    36    12     7   ar
    37    19    13   ar
    38     6     1   ar
    39    28    23   ar
    40    34    29   ar
