@<TRIPOS>MOLECULE
*****
 24 26 0 0 0
SMALL
GASTEIGER

@<TRIPOS>ATOM
      1 C         142.5243  141.7415  168.1038 C.ar    1  UNL1        0.0218
      2 C         142.2990  142.5927  169.3182 C.ar    1  UNL1        0.0989
      3 N         142.2495  141.9614  170.6779 N.ar    1  UNL1       -0.2426
      4 C         142.4253  140.4788  170.8234 C.ar    1  UNL1        0.0962
      5 C         142.6507  139.6276  169.6091 C.ar    1  UNL1        0.0166
      6 C         142.7002  140.2590  168.2492 C.ar    1  UNL1        0.0006
      7 C         141.3207  142.4984  165.9294 C.ar    1  UNL1        0.1409
      8 C         141.3702  143.1297  164.5696 C.ar    1  UNL1        0.0665
      9 C         142.6729  143.6355  164.0246 C.ar    1  UNL1        0.1432
     10 F         142.7224  144.2669  162.6648 F       1  UNL1       -0.2041
     11 C         143.9261  143.5099  164.8392 C.ar    1  UNL1        0.0298
     12 C         143.8766  142.8786  166.1990 C.ar    1  UNL1        0.0054
     13 C         142.5738  142.3728  166.7440 C.ar    1  UNL1        0.0356
     14 C         139.1963  141.0244  165.6761 C.3     1  UNL1        0.2525
     15 O         140.0179  141.9926  166.4744 O.3     1  UNL1       -0.4714
     16 C         142.8266  138.1451  169.7545 C.3     1  UNL1        0.1179
     17 N         143.5588  137.5894  170.9398 N.am    1  UNL1       -0.3004
     18 C         144.6660  136.5973  170.7399 C.2     1  UNL1        0.2222
     19 O         145.0409  136.1609  169.3547 O.2     1  UNL1       -0.2751
     20 H         143.3127  137.8759  171.8490 H       1  UNL1        0.1497
     21 C         145.3982  136.0417  171.9253 C.3     1  UNL1        0.0765
     22 C         146.4090  136.5786  172.8948 C.3     1  UNL1        0.0091
     23 C         146.4337  135.2558  173.6017 C.3     1  UNL1        0.0010
     24 C         145.4229  134.7189  172.6322 C.3     1  UNL1        0.0091
@<TRIPOS>BOND
     1    14    15    1
     2    15     7    1
     3     7     8   ar
     4     8     9   ar
     5     9    10    1
     6     9    11   ar
     7    11    12   ar
     8    12    13   ar
     9    13     1    1
    10     1     2   ar
    11     2     3   ar
    12     3     4   ar
    13     4     5   ar
    14     5    16    1
    15    16    17    1
    16    17    18   am
    17    18    19    2
    18    18    21    1
    19    21    22    1
    20    22    23    1
    21    23    24    1
    22     5     6   ar
    23    13     7   ar
    24     6     1   ar
    25    24    21    1
    26    17    20    1
@<TRIPOS>MOLECULE
*****
 24 26 0 0 0
SMALL
GASTEIGER

@<TRIPOS>ATOM
      1 C         139.7621  140.4614  168.0809 C.ar    1  UNL1        0.0218
      2 C         138.7770  139.6315  168.8496 C.ar    1  UNL1        0.0989
      3 N         137.7710  138.7929  168.1185 N.ar    1  UNL1       -0.2426
      4 C         137.7500  138.7841  166.6186 C.ar    1  UNL1        0.0962
      5 C         138.7350  139.6140  165.8499 C.ar    1  UNL1        0.0166
      6 C         139.7411  140.4527  166.5811 C.ar    1  UNL1        0.0006
      7 C         142.1336  140.7510  169.1019 C.ar    1  UNL1        0.1409
      8 C         143.1395  141.5896  169.8330 C.ar    1  UNL1        0.0665
      9 C         142.7801  142.9775  170.2743 C.ar    1  UNL1        0.1432
     10 F         143.7862  143.8161  171.0055 F       1  UNL1       -0.2041
     11 C         141.4147  143.5266  169.9845 C.ar    1  UNL1        0.0298
     12 C         140.4087  142.6879  169.2534 C.ar    1  UNL1        0.0054
     13 C         140.7682  141.3001  168.8121 C.ar    1  UNL1        0.0356
     14 C         143.0147  139.1286  167.2739 C.3     1  UNL1        0.2525
     15 O         142.4930  139.3632  168.6605 O.3     1  UNL1       -0.4714
     16 C         138.7141  139.6053  164.3501 C.3     1  UNL1        0.1179
     17 N         140.0024  139.5853  163.5822 N.am    1  UNL1       -0.3004
     18 C         140.8775  138.3675  163.6171 C.2     1  UNL1        0.2222
     19 O         140.4643  137.1697  164.4200 O.2     1  UNL1       -0.2751
     20 H         140.2736  140.3714  163.0552 H       1  UNL1        0.1497
     21 C         142.1658  138.3474  162.8492 C.3     1  UNL1        0.0765
     22 C         142.5863  137.8564  161.4956 C.3     1  UNL1        0.0091
     23 C         143.9878  138.3191  161.7631 C.3     1  UNL1        0.0010
     24 C         143.5674  138.8101  163.1167 C.3     1  UNL1        0.0091
@<TRIPOS>BOND
     1    14    15    1
     2    15     7    1
     3     7     8   ar
     4     8     9   ar
     5     9    10    1
     6     9    11   ar
     7    11    12   ar
     8    12    13   ar
     9    13     1    1
    10     1     2   ar
    11     2     3   ar
    12     3     4   ar
    13     4     5   ar
    14     5    16    1
    15    16    17    1
    16    17    18   am
    17    18    19    2
    18    18    21    1
    19    21    22    1
    20    22    23    1
    21    23    24    1
    22     5     6   ar
    23    13     7   ar
    24     6     1   ar
    25    24    21    1
    26    17    20    1
@<TRIPOS>MOLECULE
*****
 24 26 0 0 0
SMALL
GASTEIGER

@<TRIPOS>ATOM
      1 C         139.8295  140.6004  167.8419 C.ar    1  UNL1        0.0218
      2 C         138.8865  139.6457  168.5124 C.ar    1  UNL1        0.0989
      3 N         137.9305  138.8338  167.6898 N.ar    1  UNL1       -0.2426
      4 C         137.9173  138.9765  166.1966 C.ar    1  UNL1        0.0962
      5 C         138.8602  139.9312  165.5261 C.ar    1  UNL1        0.0166
      6 C         139.8163  140.7431  166.3488 C.ar    1  UNL1        0.0006
      7 C         142.1204  140.8425  169.0431 C.ar    1  UNL1        0.1409
      8 C         143.0764  141.6544  169.8658 C.ar    1  UNL1        0.0665
      9 C         142.6975  143.0362  170.3099 C.ar    1  UNL1        0.1432
     10 F         143.6536  143.8481  171.1325 F       1  UNL1       -0.2041
     11 C         141.3626  143.6060  169.9313 C.ar    1  UNL1        0.0298
     12 C         140.4066  142.7940  169.1087 C.ar    1  UNL1        0.0054
     13 C         140.7855  141.4123  168.6646 C.ar    1  UNL1        0.0356
     14 C         143.0380  139.2385  167.2169 C.3     1  UNL1        0.2525
     15 O         142.4993  139.4607  168.5990 O.3     1  UNL1       -0.4714
     16 C         138.8471  140.0739  164.0330 C.3     1  UNL1        0.1179
     17 N         139.5246  141.2451  163.3856 N.am    1  UNL1       -0.3004
     18 C         138.8280  142.5720  163.3193 C.2     1  UNL1        0.2222
     19 O         137.4540  142.7275  163.9005 O.2     1  UNL1       -0.2751
     20 H         140.4264  141.1430  163.0041 H       1  UNL1        0.1497
     21 C         139.5055  143.7432  162.6720 C.3     1  UNL1        0.0765
     22 C         139.3286  145.2319  162.7226 C.3     1  UNL1        0.0091
     23 C         140.4637  145.3996  161.7564 C.3     1  UNL1        0.0010
     24 C         140.6406  143.9110  161.7058 C.3     1  UNL1        0.0091
@<TRIPOS>BOND
     1    14    15    1
     2    15     7    1
     3     7     8   ar
     4     8     9   ar
     5     9    10    1
     6     9    11   ar
     7    11    12   ar
     8    12    13   ar
     9    13     1    1
    10     1     2   ar
    11     2     3   ar
    12     3     4   ar
    13     4     5   ar
    14     5    16    1
    15    16    17    1
    16    17    18   am
    17    18    19    2
    18    18    21    1
    19    21    22    1
    20    22    23    1
    21    23    24    1
    22     5     6   ar
    23    13     7   ar
    24     6     1   ar
    25    24    21    1
    26    17    20    1
@<TRIPOS>MOLECULE
*****
 24 26 0 0 0
SMALL
GASTEIGER

@<TRIPOS>ATOM
      1 C         142.6461  140.0769  166.3210 C.ar    1  UNL1        0.0218
      2 C         143.4047  138.8134  166.0414 C.ar    1  UNL1        0.0989
      3 N         144.5477  138.8242  165.0703 N.ar    1  UNL1       -0.2426
      4 C         144.9323  140.0985  164.3785 C.ar    1  UNL1        0.0962
      5 C         144.1737  141.3620  164.6581 C.ar    1  UNL1        0.0166
      6 C         143.0306  141.3512  165.6293 C.ar    1  UNL1        0.0006
      7 C         141.7559  140.3064  168.7510 C.ar    1  UNL1        0.1409
      8 C         140.6129  140.2956  169.7221 C.ar    1  UNL1        0.0665
      9 C         139.2167  140.0446  169.2345 C.ar    1  UNL1        0.1432
     10 F         138.0736  140.0338  170.2057 F       1  UNL1       -0.2041
     11 C         138.9637  139.8043  167.7757 C.ar    1  UNL1        0.0298
     12 C         140.1068  139.8151  166.8045 C.ar    1  UNL1        0.0054
     13 C         141.5029  140.0662  167.2922 C.ar    1  UNL1        0.0356
     14 C         143.5464  141.9250  169.7124 C.3     1  UNL1        0.2525
     15 O         143.1521  140.5575  169.2387 O.3     1  UNL1       -0.4714
     16 C         144.5582  142.6362  163.9664 C.3     1  UNL1        0.1179
     17 N         143.5160  143.6743  163.6732 N.am    1  UNL1       -0.3004
     18 C         142.6420  143.5385  162.4617 C.2     1  UNL1        0.2222
     19 O         142.8103  142.3645  161.5434 O.2     1  UNL1       -0.2751
     20 H         143.4055  144.4449  164.2760 H       1  UNL1        0.1497
     21 C         141.5998  144.5766  162.1685 C.3     1  UNL1        0.0765
     22 C         140.8001  145.5397  162.9950 C.3     1  UNL1        0.0091
     23 C         140.1258  146.0448  161.7539 C.3     1  UNL1        0.0010
     24 C         140.9255  145.0818  160.9275 C.3     1  UNL1        0.0091
@<TRIPOS>BOND
     1    14    15    1
     2    15     7    1
     3     7     8   ar
     4     8     9   ar
     5     9    10    1
     6     9    11   ar
     7    11    12   ar
     8    12    13   ar
     9    13     1    1
    10     1     2   ar
    11     2     3   ar
    12     3     4   ar
    13     4     5   ar
    14     5    16    1
    15    16    17    1
    16    17    18   am
    17    18    19    2
    18    18    21    1
    19    21    22    1
    20    22    23    1
    21    23    24    1
    22     5     6   ar
    23    13     7   ar
    24     6     1   ar
    25    24    21    1
    26    17    20    1
@<TRIPOS>MOLECULE
*****
 24 26 0 0 0
SMALL
GASTEIGER

@<TRIPOS>ATOM
      1 C         141.0938  141.9528  166.7813 C.ar    1  UNL1        0.0218
      2 C         141.1976  142.1311  168.2671 C.ar    1  UNL1        0.0989
      3 N         140.4073  141.2470  169.1856 N.ar    1  UNL1       -0.2426
      4 C         139.5132  140.1845  168.6183 C.ar    1  UNL1        0.0962
      5 C         139.4094  140.0062  167.1326 C.ar    1  UNL1        0.0166
      6 C         140.1998  140.8904  166.2141 C.ar    1  UNL1        0.0006
      7 C         141.1763  143.7141  164.8731 C.ar    1  UNL1        0.1409
      8 C         141.9666  144.5982  163.9546 C.ar    1  UNL1        0.0665
      9 C         143.4649  144.6053  164.0259 C.ar    1  UNL1        0.1432
     10 F         144.2553  145.4895  163.1074 F       1  UNL1       -0.2041
     11 C         144.1728  143.7283  165.0157 C.ar    1  UNL1        0.0298
     12 C         143.3825  142.8441  165.9341 C.ar    1  UNL1        0.0054
     13 C         141.8842  142.8370  165.8628 C.ar    1  UNL1        0.0356
     14 C         138.8926  144.8277  165.4158 C.3     1  UNL1        0.2525
     15 O         139.6780  143.7069  164.8018 O.3     1  UNL1       -0.4714
     16 C         138.5153  138.9437  166.5653 C.3     1  UNL1        0.1179
     17 N         138.2895  138.8656  165.0845 N.am    1  UNL1       -0.3004
     18 C         139.3147  138.2162  164.2028 C.2     1  UNL1        0.2222
     19 O         140.5656  137.6450  164.8019 O.2     1  UNL1       -0.2751
     20 H         137.4685  139.2405  164.6913 H       1  UNL1        0.1497
     21 C         139.0889  138.1380  162.7219 C.3     1  UNL1        0.0765
     22 C         137.8822  138.1486  161.8310 C.3     1  UNL1        0.0091
     23 C         138.7695  138.0275  160.6277 C.3     1  UNL1        0.0010
     24 C         139.9762  138.0170  161.5186 C.3     1  UNL1        0.0091
@<TRIPOS>BOND
     1    14    15    1
     2    15     7    1
     3     7     8   ar
     4     8     9   ar
     5     9    10    1
     6     9    11   ar
     7    11    12   ar
     8    12    13   ar
     9    13     1    1
    10     1     2   ar
    11     2     3   ar
    12     3     4   ar
    13     4     5   ar
    14     5    16    1
    15    16    17    1
    16    17    18   am
    17    18    19    2
    18    18    21    1
    19    21    22    1
    20    22    23    1
    21    23    24    1
    22     5     6   ar
    23    13     7   ar
    24     6     1   ar
    25    24    21    1
    26    17    20    1
@<TRIPOS>MOLECULE
*****
 24 26 0 0 0
SMALL
GASTEIGER

@<TRIPOS>ATOM
      1 C         139.9302  143.2520  165.0313 C.ar    1  UNL1        0.0218
      2 C         138.6921  142.4446  164.7759 C.ar    1  UNL1        0.0989
      3 N         137.7622  142.8292  163.6635 N.ar    1  UNL1       -0.2426
      4 C         138.0704  144.0212  162.8065 C.ar    1  UNL1        0.0962
      5 C         139.3085  144.8285  163.0620 C.ar    1  UNL1        0.0166
      6 C         140.2384  144.4439  164.1745 C.ar    1  UNL1        0.0006
      7 C         142.2574  142.4198  165.8323 C.ar    1  UNL1        0.1409
      8 C         143.1873  142.0352  166.9447 C.ar    1  UNL1        0.0665
      9 C         142.7197  142.0982  168.3686 C.ar    1  UNL1        0.1432
     10 F         143.6496  141.7135  169.4810 F       1  UNL1       -0.2041
     11 C         141.3224  142.5458  168.6801 C.ar    1  UNL1        0.0298
     12 C         140.3926  142.9304  167.5677 C.ar    1  UNL1        0.0054
     13 C         140.8601  142.8674  166.1438 C.ar    1  UNL1        0.0356
     14 C         142.6416  141.0665  163.6480 C.3     1  UNL1        0.2525
     15 O         142.7250  142.3568  164.4084 O.3     1  UNL1       -0.4714
     16 C         139.6168  146.0204  162.2051 C.3     1  UNL1        0.1179
     17 N         139.6694  145.8778  160.7129 N.am    1  UNL1       -0.3004
     18 C         140.8924  145.3090  160.0565 C.2     1  UNL1        0.2222
     19 O         142.0627  144.8829  160.8923 O.2     1  UNL1       -0.2751
     20 H         138.9012  146.1575  160.1643 H       1  UNL1        0.1497
     21 C         140.9450  145.1664  158.5642 C.3     1  UNL1        0.0765
     22 C         141.8402  145.6884  157.4797 C.3     1  UNL1        0.0091
     23 C         141.0194  144.9647  156.4538 C.3     1  UNL1        0.0010
     24 C         140.1241  144.4428  157.5383 C.3     1  UNL1        0.0091
@<TRIPOS>BOND
     1    14    15    1
     2    15     7    1
     3     7     8   ar
     4     8     9   ar
     5     9    10    1
     6     9    11   ar
     7    11    12   ar
     8    12    13   ar
     9    13     1    1
    10     1     2   ar
    11     2     3   ar
    12     3     4   ar
    13     4     5   ar
    14     5    16    1
    15    16    17    1
    16    17    18   am
    17    18    19    2
    18    18    21    1
    19    21    22    1
    20    22    23    1
    21    23    24    1
    22     5     6   ar
    23    13     7   ar
    24     6     1   ar
    25    24    21    1
    26    17    20    1
@<TRIPOS>MOLECULE
*****
 24 26 0 0 0
SMALL
GASTEIGER

@<TRIPOS>ATOM
      1 C         142.4877  139.7285  165.0204 C.ar    1  UNL1        0.0218
      2 C         143.6231  138.7675  165.2141 C.ar    1  UNL1        0.0989
      3 N         144.9867  139.1013  164.6858 N.ar    1  UNL1       -0.2426
      4 C         145.2150  140.3962  163.9638 C.ar    1  UNL1        0.0962
      5 C         144.0797  141.3572  163.7701 C.ar    1  UNL1        0.0166
      6 C         142.7160  141.0233  164.2984 C.ar    1  UNL1        0.0006
      7 C         140.2954  138.3420  164.8740 C.ar    1  UNL1        0.1409
      8 C         138.9318  138.0082  165.4024 C.ar    1  UNL1        0.0665
      9 C         138.3969  138.7270  166.6054 C.ar    1  UNL1        0.1432
     10 F         137.0333  138.3931  167.1337 F       1  UNL1       -0.2041
     11 C         139.2256  139.7796  167.2800 C.ar    1  UNL1        0.0298
     12 C         140.5892  140.1135  166.7517 C.ar    1  UNL1        0.0054
     13 C         141.1241  139.3946  165.5487 C.ar    1  UNL1        0.0356
     14 C         140.4215  138.0573  162.2947 C.3     1  UNL1        0.2525
     15 O         140.8303  137.6232  163.6711 O.3     1  UNL1       -0.4714
     16 C         144.3080  142.6520  163.0482 C.3     1  UNL1        0.1179
     17 N         143.2187  143.6817  162.9923 N.am    1  UNL1       -0.3004
     18 C         142.3126  143.7510  161.7988 C.2     1  UNL1        0.2222
     19 O         142.4960  142.7907  160.6612 O.2     1  UNL1       -0.2751
     20 H         143.0984  144.3120  163.7389 H       1  UNL1        0.1497
     21 C         141.2234  144.7807  161.7429 C.3     1  UNL1        0.0765
     22 C         140.4102  145.5209  162.7632 C.3     1  UNL1        0.0091
     23 C         139.6828  146.2369  161.6639 C.3     1  UNL1        0.0010
     24 C         140.4960  145.4967  160.6437 C.3     1  UNL1        0.0091
@<TRIPOS>BOND
     1    14    15    1
     2    15     7    1
     3     7     8   ar
     4     8     9   ar
     5     9    10    1
     6     9    11   ar
     7    11    12   ar
     8    12    13   ar
     9    13     1    1
    10     1     2   ar
    11     2     3   ar
    12     3     4   ar
    13     4     5   ar
    14     5    16    1
    15    16    17    1
    16    17    18   am
    17    18    19    2
    18    18    21    1
    19    21    22    1
    20    22    23    1
    21    23    24    1
    22     5     6   ar
    23    13     7   ar
    24     6     1   ar
    25    24    21    1
    26    17    20    1
@<TRIPOS>MOLECULE
*****
 24 26 0 0 0
SMALL
GASTEIGER

@<TRIPOS>ATOM
      1 C         140.8459  139.5596  166.6551 C.ar    1  UNL1        0.0218
      2 C         142.2575  139.0841  166.4785 C.ar    1  UNL1        0.0989
      3 N         142.5870  138.0977  165.3975 N.ar    1  UNL1       -0.2426
      4 C         141.5047  137.5867  164.4932 C.ar    1  UNL1        0.0962
      5 C         140.0931  138.0623  164.6698 C.ar    1  UNL1        0.0166
      6 C         139.7637  139.0487  165.7508 C.ar    1  UNL1        0.0006
      7 C         140.9636  141.9724  167.6115 C.ar    1  UNL1        0.1409
      8 C         140.6342  142.9587  168.6925 C.ar    1  UNL1        0.0665
      9 C         139.8577  142.5187  169.8981 C.ar    1  UNL1        0.1432
     10 F         139.5283  143.5052  170.9791 F       1  UNL1       -0.2041
     11 C         139.4105  141.0924  170.0226 C.ar    1  UNL1        0.0298
     12 C         139.7399  140.1060  168.9417 C.ar    1  UNL1        0.0054
     13 C         140.5165  140.5460  167.7361 C.ar    1  UNL1        0.0356
     14 C         143.2341  142.5272  166.4770 C.3     1  UNL1        0.2525
     15 O         141.7402  142.4123  166.4060 O.3     1  UNL1       -0.4714
     16 C         139.0109  137.5514  163.7655 C.3     1  UNL1        0.1179
     17 N         138.5499  138.3815  162.6043 N.am    1  UNL1       -0.3004
     18 C         139.3598  138.4212  161.3423 C.2     1  UNL1        0.2222
     19 O         140.6307  137.6309  161.2416 O.2     1  UNL1       -0.2751
     20 H         137.7157  138.9002  162.6705 H       1  UNL1        0.1497
     21 C         138.8987  139.2513  160.1811 C.3     1  UNL1        0.0765
     22 C         137.7962  140.2436  159.9582 C.3     1  UNL1        0.0091
     23 C         138.2467  140.4253  158.5390 C.3     1  UNL1        0.0010
     24 C         139.3492  139.4329  158.7620 C.3     1  UNL1        0.0091
@<TRIPOS>BOND
     1    14    15    1
     2    15     7    1
     3     7     8   ar
     4     8     9   ar
     5     9    10    1
     6     9    11   ar
     7    11    12   ar
     8    12    13   ar
     9    13     1    1
    10     1     2   ar
    11     2     3   ar
    12     3     4   ar
    13     4     5   ar
    14     5    16    1
    15    16    17    1
    16    17    18   am
    17    18    19    2
    18    18    21    1
    19    21    22    1
    20    22    23    1
    21    23    24    1
    22     5     6   ar
    23    13     7   ar
    24     6     1   ar
    25    24    21    1
    26    17    20    1
@<TRIPOS>MOLECULE
*****
 24 26 0 0 0
SMALL
GASTEIGER

@<TRIPOS>ATOM
      1 C         143.0512  140.2210  166.0652 C.ar    1  UNL1        0.0218
      2 C         143.7430  138.9872  165.5661 C.ar    1  UNL1        0.0989
      3 N         144.6992  139.0777  164.4139 N.ar    1  UNL1       -0.2426
      4 C         144.9636  140.4020  163.7609 C.ar    1  UNL1        0.0962
      5 C         144.2719  141.6358  164.2601 C.ar    1  UNL1        0.0166
      6 C         143.3156  141.5453  165.4123 C.ar    1  UNL1        0.0006
      7 C         140.6173  140.2147  166.9741 C.ar    1  UNL1        0.1409
      8 C         139.6611  140.1242  168.1263 C.ar    1  UNL1        0.0665
      9 C         140.1827  139.9496  169.5218 C.ar    1  UNL1        0.1432
     10 F         139.2264  139.8591  170.6740 F       1  UNL1       -0.2041
     11 C         141.6604  139.8654  169.7651 C.ar    1  UNL1        0.0298
     12 C         142.6165  139.9559  168.6130 C.ar    1  UNL1        0.0054
     13 C         142.0950  140.1305  167.2175 C.ar    1  UNL1        0.0356
     14 C         139.4471  141.6806  165.1764 C.3     1  UNL1        0.2525
     15 O         140.0957  140.3893  165.5786 O.3     1  UNL1       -0.4714
     16 C         144.5363  142.9600  163.6071 C.3     1  UNL1        0.1179
     17 N         143.4057  143.9151  163.3635 N.am    1  UNL1       -0.3004
     18 C         142.5874  143.8049  162.1111 C.2     1  UNL1        0.2222
     19 O         142.8998  142.7396  161.1024 O.2     1  UNL1       -0.2751
     20 H         143.2006  144.6143  164.0255 H       1  UNL1        0.1497
     21 C         141.4568  144.7600  161.8675 C.3     1  UNL1        0.0765
     22 C         140.5760  145.6055  162.7390 C.3     1  UNL1        0.0091
     23 C         139.8578  146.1108  161.5229 C.3     1  UNL1        0.0010
     24 C         140.7385  145.2653  160.6514 C.3     1  UNL1        0.0091
@<TRIPOS>BOND
     1    14    15    1
     2    15     7    1
     3     7     8   ar
     4     8     9   ar
     5     9    10    1
     6     9    11   ar
     7    11    12   ar
     8    12    13   ar
     9    13     1    1
    10     1     2   ar
    11     2     3   ar
    12     3     4   ar
    13     4     5   ar
    14     5    16    1
    15    16    17    1
    16    17    18   am
    17    18    19    2
    18    18    21    1
    19    21    22    1
    20    22    23    1
    21    23    24    1
    22     5     6   ar
    23    13     7   ar
    24     6     1   ar
    25    24    21    1
    26    17    20    1
