@<TRIPOS>MOLECULE
*****
 33 36 0 0 0
SMALL
GASTEIGER

@<TRIPOS>ATOM
      1 N         140.9729  142.3762  162.3848 N.ar    1  UNL1       -0.2444
      2 N         142.1445  142.9449  161.6404 N.ar    1  UNL1       -0.1719
      3 C         143.2214  143.2540  162.6377 C.ar    1  UNL1        0.0981
      4 C         144.5680  143.8382  162.3286 C.3     1  UNL1        0.0556
      5 C         142.7155  142.8764  163.9984 C.ar    1  UNL1        0.1193
      6 N         143.3407  142.9565  165.3595 N.ar    1  UNL1       -0.2109
      7 C         142.5762  142.4940  166.5643 C.ar    1  UNL1        0.2181
      8 N         141.1865  141.9515  166.4080 N.ar    1  UNL1       -0.1972
      9 C         140.5613  141.8714  165.0469 C.ar    1  UNL1        0.1550
     10 C         141.3258  142.3339  163.8421 C.ar    1  UNL1        0.1284
     11 N         143.2014  142.5741  167.9255 N.pl3   1  UNL1       -0.3045
     12 H         144.1451  142.8384  168.0190 H       1  UNL1        0.1496
     13 C         142.3886  142.2514  169.1443 C.3     1  UNL1        0.0745
     14 C         142.7881  141.1097  170.0315 C.3     1  UNL1        0.0367
     15 C         141.9753  140.7871  171.2502 C.3     1  UNL1        0.0703
     16 N         140.7631  141.6060  171.5817 N.3     1  UNL1       -0.2974
     17 C         140.3636  142.7476  170.6945 C.3     1  UNL1        0.0703
     18 C         141.1764  143.0703  169.4758 C.3     1  UNL1        0.0367
     19 H         140.9162  141.9956  172.5118 H       1  UNL1        0.1232
     20 N         139.1716  141.3289  164.8906 N.pl3   1  UNL1       -0.2820
     21 H         138.4406  141.9229  164.6043 H       1  UNL1        0.1551
     22 C         138.8958  139.8813  165.1705 C.ar    1  UNL1        0.1329
     23 C         138.0301  139.4938  166.3327 C.ar    1  UNL1        0.0302
     24 C         137.7543  138.0462  166.6125 C.ar    1  UNL1       -0.0175
     25 C         136.8887  137.6587  167.7747 C.3     1  UNL1        0.0312
     26 C         138.3439  136.9861  165.7303 C.ar    1  UNL1        0.0165
     27 C         139.2095  137.3735  164.5681 C.ar    1  UNL1        0.1000
     28 N         139.4854  138.8212  164.2882 N.ar    1  UNL1       -0.2291
     29 C         139.6761  141.9284  161.7784 C.3     1  UNL1        0.1595
     30 C         138.5085  142.8688  161.7257 C.3     1  UNL1        0.1684
     31 O         137.8868  143.3645  162.9976 O.3     1  UNL1       -0.3516
     32 C         138.5257  144.7763  165.0829 C.3     1  UNL1        0.0346
     33 C         138.3413  144.6614  163.5987 C.3     1  UNL1        0.1423
@<TRIPOS>BOND
     1    32    33    1
     2    33    31    1
     3    31    30    1
     4    30    29    1
     5    29     1    1
     6     1     2   ar
     7     2     3   ar
     8     3     4    1
     9     3     5   ar
    10     5     6   ar
    11     6     7   ar
    12     7    11    1
    13    11    13    1
    14    13    14    1
    15    14    15    1
    16    15    16    1
    17    16    17    1
    18    17    18    1
    19     7     8   ar
    20     8     9   ar
    21     9    20    1
    22    20    22    1
    23    22    23   ar
    24    23    24   ar
    25    24    25    1
    26    24    26   ar
    27    26    27   ar
    28    27    28   ar
    29     9    10   ar
    30    10     1   ar
    31    10     5   ar
    32    18    13    1
    33    28    22   ar
    34    11    12    1
    35    16    19    1
    36    20    21    1
@<TRIPOS>MOLECULE
*****
 33 36 0 0 0
SMALL
GASTEIGER

@<TRIPOS>ATOM
      1 N         139.2499  139.9797  163.1593 N.ar    1  UNL1       -0.2444
      2 N         138.2899  139.1455  163.9547 N.ar    1  UNL1       -0.1719
      3 C         138.5856  139.3590  165.4096 C.ar    1  UNL1        0.0981
      4 C         137.8651  138.7188  166.5590 C.3     1  UNL1        0.0556
      5 C         139.7284  140.3251  165.5135 C.ar    1  UNL1        0.1193
      6 N         140.4482  140.9050  166.6949 N.ar    1  UNL1       -0.2109
      7 C         141.5785  141.8685  166.4854 C.ar    1  UNL1        0.2181
      8 N         141.9891  142.2521  165.0946 N.ar    1  UNL1       -0.1972
      9 C         141.2693  141.6722  163.9133 C.ar    1  UNL1        0.1550
     10 C         140.1390  140.7087  164.1227 C.ar    1  UNL1        0.1284
     11 N         142.2984  142.4485  167.6667 N.pl3   1  UNL1       -0.3045
     12 H         143.1734  142.8830  167.5453 H       1  UNL1        0.1496
     13 C         141.6849  142.3665  169.0331 C.3     1  UNL1        0.0745
     14 C         142.2389  141.4106  170.0478 C.3     1  UNL1        0.0367
     15 C         141.6255  141.3285  171.4141 C.3     1  UNL1        0.0703
     16 N         140.4581  142.2024  171.7658 N.3     1  UNL1       -0.2974
     17 C         139.9042  143.1582  170.7512 C.3     1  UNL1        0.0703
     18 C         140.5176  143.2402  169.3848 C.3     1  UNL1        0.0367
     19 H         140.7399  142.7597  172.5723 H       1  UNL1        0.1232
     20 N         141.6798  142.0558  162.5225 N.pl3   1  UNL1       -0.2820
     21 H         142.2905  141.4764  162.0120 H       1  UNL1        0.1551
     22 C         141.1600  143.3223  161.9095 C.ar    1  UNL1        0.1329
     23 C         141.6070  143.7296  160.5367 C.ar    1  UNL1        0.0302
     24 C         141.0872  144.9961  159.9237 C.ar    1  UNL1       -0.0175
     25 C         141.5342  145.4034  158.5509 C.3     1  UNL1        0.0312
     26 C         140.1204  145.8552  160.6833 C.ar    1  UNL1        0.0165
     27 C         139.6733  145.4480  162.0560 C.ar    1  UNL1        0.1000
     28 N         140.1932  144.1815  162.6691 N.ar    1  UNL1       -0.2291
     29 C         139.3103  140.0692  161.6632 C.3     1  UNL1        0.1595
     30 C         139.9773  138.9824  160.8732 C.3     1  UNL1        0.1684
     31 O         140.3102  137.6749  161.5288 O.3     1  UNL1       -0.3516
     32 C         141.2332  137.0792  163.8831 C.3     1  UNL1        0.0346
     33 C         141.4581  137.5891  162.4905 C.3     1  UNL1        0.1423
@<TRIPOS>BOND
     1    32    33    1
     2    33    31    1
     3    31    30    1
     4    30    29    1
     5    29     1    1
     6     1     2   ar
     7     2     3   ar
     8     3     4    1
     9     3     5   ar
    10     5     6   ar
    11     6     7   ar
    12     7    11    1
    13    11    13    1
    14    13    14    1
    15    14    15    1
    16    15    16    1
    17    16    17    1
    18    17    18    1
    19     7     8   ar
    20     8     9   ar
    21     9    20    1
    22    20    22    1
    23    22    23   ar
    24    23    24   ar
    25    24    25    1
    26    24    26   ar
    27    26    27   ar
    28    27    28   ar
    29     9    10   ar
    30    10     1   ar
    31    10     5   ar
    32    18    13    1
    33    28    22   ar
    34    11    12    1
    35    16    19    1
    36    20    21    1
@<TRIPOS>MOLECULE
*****
 33 36 0 0 0
SMALL
GASTEIGER

@<TRIPOS>ATOM
      1 N         139.0377  140.7364  162.9968 N.ar    1  UNL1       -0.2444
      2 N         138.2261  139.6549  163.6462 N.ar    1  UNL1       -0.1719
      3 C         138.6875  139.5189  165.0669 C.ar    1  UNL1        0.0981
      4 C         138.1471  138.5547  166.0810 C.3     1  UNL1        0.0556
      5 C         139.7843  140.5163  165.2957 C.ar    1  UNL1        0.1193
      6 N         140.6138  140.8366  166.5036 N.ar    1  UNL1       -0.2109
      7 C         141.6598  141.9093  166.4322 C.ar    1  UNL1        0.2181
      8 N         141.8762  142.6618  165.1527 N.ar    1  UNL1       -0.1972
      9 C         141.0467  142.3415  163.9448 C.ar    1  UNL1        0.1550
     10 C         140.0007  141.2688  164.0162 C.ar    1  UNL1        0.1284
     11 N         142.4894  142.2296  167.6402 N.pl3   1  UNL1       -0.3045
     12 H         143.4373  142.4742  167.5356 H       1  UNL1        0.1496
     13 C         141.8748  142.1772  169.0075 C.3     1  UNL1        0.0745
     14 C         142.4290  141.2449  170.0437 C.3     1  UNL1        0.0367
     15 C         141.8144  141.1925  171.4110 C.3     1  UNL1        0.0703
     16 N         140.6455  142.0724  171.7420 N.3     1  UNL1       -0.2974
     17 C         140.0913  143.0046  170.7058 C.3     1  UNL1        0.0703
     18 C         140.7059  143.0570  169.3386 C.3     1  UNL1        0.0367
     19 H         140.9258  142.6479  172.5361 H       1  UNL1        0.1232
     20 N         141.2631  143.0940  162.6653 N.pl3   1  UNL1       -0.2820
     21 H         140.7924  143.9444  162.5088 H       1  UNL1        0.1551
     22 C         142.1966  142.5508  161.6245 C.ar    1  UNL1        0.1329
     23 C         142.6742  141.1315  161.7126 C.ar    1  UNL1        0.0302
     24 C         143.6077  140.5883  160.6717 C.ar    1  UNL1       -0.0175
     25 C         144.0853  139.1690  160.7599 C.3     1  UNL1        0.0312
     26 C         144.0636  141.4643  159.5427 C.ar    1  UNL1        0.0165
     27 C         143.5861  142.8835  159.4545 C.ar    1  UNL1        0.1000
     28 N         142.6525  143.4267  160.4954 N.ar    1  UNL1       -0.2291
     29 C         138.9089  141.2035  161.5772 C.3     1  UNL1        0.1595
     30 C         138.1148  142.4367  161.2625 C.3     1  UNL1        0.1684
     31 O         138.5319  143.7619  161.8279 O.3     1  UNL1       -0.3516
     32 C         137.8061  143.9452  164.3157 C.3     1  UNL1        0.0346
     33 C         137.7050  144.4157  162.8950 C.3     1  UNL1        0.1423
@<TRIPOS>BOND
     1    32    33    1
     2    33    31    1
     3    31    30    1
     4    30    29    1
     5    29     1    1
     6     1     2   ar
     7     2     3   ar
     8     3     4    1
     9     3     5   ar
    10     5     6   ar
    11     6     7   ar
    12     7    11    1
    13    11    13    1
    14    13    14    1
    15    14    15    1
    16    15    16    1
    17    16    17    1
    18    17    18    1
    19     7     8   ar
    20     8     9   ar
    21     9    20    1
    22    20    22    1
    23    22    23   ar
    24    23    24   ar
    25    24    25    1
    26    24    26   ar
    27    26    27   ar
    28    27    28   ar
    29     9    10   ar
    30    10     1   ar
    31    10     5   ar
    32    18    13    1
    33    28    22   ar
    34    11    12    1
    35    16    19    1
    36    20    21    1
@<TRIPOS>MOLECULE
*****
 33 36 0 0 0
SMALL
GASTEIGER

@<TRIPOS>ATOM
      1 N         139.7083  140.3443  167.8243 N.ar    1  UNL1       -0.2444
      2 N         138.5361  139.5696  168.3496 N.ar    1  UNL1       -0.1719
      3 C         138.0893  138.6210  167.2770 C.ar    1  UNL1        0.0981
      4 C         136.9470  137.6538  167.3752 C.3     1  UNL1        0.0556
      5 C         138.9854  138.8093  166.0889 C.ar    1  UNL1        0.1193
      6 N         139.0195  138.1486  164.7427 N.ar    1  UNL1       -0.2109
      7 C         140.0542  138.5530  163.7348 C.ar    1  UNL1        0.2181
      8 N         141.0548  139.6180  164.0731 N.ar    1  UNL1       -0.1972
      9 C         141.0207  140.2787  165.4193 C.ar    1  UNL1        0.1550
     10 C         139.9860  139.8744  166.4272 C.ar    1  UNL1        0.1284
     11 N         140.0883  137.8922  162.3885 N.pl3   1  UNL1       -0.3045
     12 H         140.5417  137.0255  162.2769 H       1  UNL1        0.1496
     13 C         139.4316  138.5521  161.2124 C.3     1  UNL1        0.0745
     14 C         140.1072  138.5421  159.8731 C.3     1  UNL1        0.0367
     15 C         139.4505  139.2020  158.6969 C.3     1  UNL1        0.0703
     16 N         138.1183  139.8719  158.8601 N.3     1  UNL1       -0.2974
     17 C         137.4428  139.8819  160.1993 C.3     1  UNL1        0.0703
     18 C         138.0995  139.2220  161.3755 C.3     1  UNL1        0.0367
     19 H         137.4777  139.4155  158.2106 H       1  UNL1        0.1232
     20 N         142.0212  141.3438  165.7576 N.pl3   1  UNL1       -0.2820
     21 H         142.7031  141.1772  166.4479 H       1  UNL1        0.1551
     22 C         141.9829  142.6627  165.0442 C.ar    1  UNL1        0.1329
     23 C         140.6701  143.2389  164.6030 C.ar    1  UNL1        0.0302
     24 C         140.6318  144.5578  163.8895 C.ar    1  UNL1       -0.0175
     25 C         139.3190  145.1340  163.4483 C.3     1  UNL1        0.0312
     26 C         141.9062  145.3005  163.6172 C.ar    1  UNL1        0.0165
     27 C         143.2190  144.7244  164.0584 C.ar    1  UNL1        0.1000
     28 N         143.2574  143.4054  164.7719 N.ar    1  UNL1       -0.2291
     29 C         140.4692  141.4030  168.5661 C.3     1  UNL1        0.1595
     30 C         140.6430  141.2994  170.0525 C.3     1  UNL1        0.1684
     31 O         141.9245  140.7675  170.6225 O.3     1  UNL1       -0.3516
     32 C         143.8042  142.3691  169.8156 C.3     1  UNL1        0.0346
     33 C         143.2179  140.9908  169.8964 C.3     1  UNL1        0.1423
@<TRIPOS>BOND
     1    32    33    1
     2    33    31    1
     3    31    30    1
     4    30    29    1
     5    29     1    1
     6     1     2   ar
     7     2     3   ar
     8     3     4    1
     9     3     5   ar
    10     5     6   ar
    11     6     7   ar
    12     7    11    1
    13    11    13    1
    14    13    14    1
    15    14    15    1
    16    15    16    1
    17    16    17    1
    18    17    18    1
    19     7     8   ar
    20     8     9   ar
    21     9    20    1
    22    20    22    1
    23    22    23   ar
    24    23    24   ar
    25    24    25    1
    26    24    26   ar
    27    26    27   ar
    28    27    28   ar
    29     9    10   ar
    30    10     1   ar
    31    10     5   ar
    32    18    13    1
    33    28    22   ar
    34    11    12    1
    35    16    19    1
    36    20    21    1
@<TRIPOS>MOLECULE
*****
 33 36 0 0 0
SMALL
GASTEIGER

@<TRIPOS>ATOM
      1 N         139.7470  139.6388  163.0514 N.ar    1  UNL1       -0.2444
      2 N         138.6603  138.9436  163.8168 N.ar    1  UNL1       -0.1719
      3 C         138.8133  139.2998  165.2658 C.ar    1  UNL1        0.0981
      4 C         137.9386  138.8242  166.3877 C.3     1  UNL1        0.0556
      5 C         139.9944  140.2152  165.3959 C.ar    1  UNL1        0.1193
      6 N         140.6191  140.8850  166.5838 N.ar    1  UNL1       -0.2109
      7 C         141.8208  141.7643  166.4031 C.ar    1  UNL1        0.2181
      8 N         142.3978  141.9738  165.0345 N.ar    1  UNL1       -0.1972
      9 C         141.7732  141.3040  163.8466 C.ar    1  UNL1        0.1550
     10 C         140.5715  140.4247  164.0273 C.ar    1  UNL1        0.1284
     11 N         142.4455  142.4342  167.5910 N.pl3   1  UNL1       -0.3045
     12 H         143.2822  142.9422  167.4861 H       1  UNL1        0.1496
     13 C         141.7953  142.3300  168.9388 C.3     1  UNL1        0.0745
     14 C         142.3343  141.3720  169.9595 C.3     1  UNL1        0.0367
     15 C         141.6841  141.2678  171.3072 C.3     1  UNL1        0.0703
     16 N         140.4948  142.1215  171.6342 N.3     1  UNL1       -0.2974
     17 C         139.9558  143.0794  170.6135 C.3     1  UNL1        0.0703
     18 C         140.6060  143.1836  169.2658 C.3     1  UNL1        0.0367
     19 H         140.7458  142.6748  172.4535 H       1  UNL1        0.1232
     20 N         142.3503  141.5135  162.4780 N.pl3   1  UNL1       -0.2820
     21 H         143.0215  140.8855  162.1254 H       1  UNL1        0.1551
     22 C         141.9047  142.6797  161.6466 C.ar    1  UNL1        0.1329
     23 C         141.1574  143.8134  162.2842 C.ar    1  UNL1        0.0302
     24 C         140.7118  144.9797  161.4529 C.ar    1  UNL1       -0.0175
     25 C         139.9645  146.1133  162.0905 C.3     1  UNL1        0.0312
     26 C         141.0135  145.0124  159.9839 C.ar    1  UNL1        0.0165
     27 C         141.7607  143.8788  159.3463 C.ar    1  UNL1        0.1000
     28 N         142.2063  142.7125  160.1776 N.ar    1  UNL1       -0.2291
     29 C         139.9700  139.5617  161.5700 C.3     1  UNL1        0.1595
     30 C         138.9742  140.1723  160.6288 C.3     1  UNL1        0.1684
     31 O         137.7975  140.9293  161.1695 O.3     1  UNL1       -0.3516
     32 C         137.6734  142.6777  163.0872 C.3     1  UNL1        0.0346
     33 C         137.9713  142.3372  161.6571 C.3     1  UNL1        0.1423
@<TRIPOS>BOND
     1    32    33    1
     2    33    31    1
     3    31    30    1
     4    30    29    1
     5    29     1    1
     6     1     2   ar
     7     2     3   ar
     8     3     4    1
     9     3     5   ar
    10     5     6   ar
    11     6     7   ar
    12     7    11    1
    13    11    13    1
    14    13    14    1
    15    14    15    1
    16    15    16    1
    17    16    17    1
    18    17    18    1
    19     7     8   ar
    20     8     9   ar
    21     9    20    1
    22    20    22    1
    23    22    23   ar
    24    23    24   ar
    25    24    25    1
    26    24    26   ar
    27    26    27   ar
    28    27    28   ar
    29     9    10   ar
    30    10     1   ar
    31    10     5   ar
    32    18    13    1
    33    28    22   ar
    34    11    12    1
    35    16    19    1
    36    20    21    1
@<TRIPOS>MOLECULE
*****
 33 36 0 0 0
SMALL
GASTEIGER

@<TRIPOS>ATOM
      1 N         139.9068  141.1075  162.6436 N.ar    1  UNL1       -0.2444
      2 N         139.3738  139.8426  162.0386 N.ar    1  UNL1       -0.1719
      3 C         139.0124  138.9104  163.1568 C.ar    1  UNL1        0.0981
      4 C         138.4415  137.5316  163.0054 C.3     1  UNL1        0.0556
      5 C         139.3221  139.5991  164.4529 C.ar    1  UNL1        0.1193
      6 N         139.1722  139.1651  165.8808 N.ar    1  UNL1       -0.2109
      7 C         139.5751  140.0890  166.9917 C.ar    1  UNL1        0.2181
      8 N         140.1279  141.4469  166.6745 N.ar    1  UNL1       -0.1972
      9 C         140.2778  141.8809  165.2465 C.ar    1  UNL1        0.1550
     10 C         139.8749  140.9569  164.1357 C.ar    1  UNL1        0.1284
     11 N         139.4252  139.6551  168.4197 N.pl3   1  UNL1       -0.3045
     12 H         138.7149  139.0208  168.6695 H       1  UNL1        0.1496
     13 C         140.3575  140.1877  169.4672 C.3     1  UNL1        0.0745
     14 C         141.6954  139.5429  169.6782 C.3     1  UNL1        0.0367
     15 C         142.6277  140.0755  170.7257 C.3     1  UNL1        0.0703
     16 N         142.2221  141.2528  171.5621 N.3     1  UNL1       -0.2974
     17 C         140.8843  141.8974  171.3511 C.3     1  UNL1        0.0703
     18 C         139.9520  141.3649  170.3036 C.3     1  UNL1        0.0367
     19 H         142.9248  141.9767  171.4119 H       1  UNL1        0.1232
     20 N         140.8306  143.2387  164.9294 N.pl3   1  UNL1       -0.2820
     21 H         140.3103  144.0454  165.1481 H       1  UNL1        0.1551
     22 C         142.1761  143.3676  164.2790 C.ar    1  UNL1        0.1329
     23 C         143.1867  142.2683  164.4221 C.ar    1  UNL1        0.0302
     24 C         144.5322  142.3971  163.7718 C.ar    1  UNL1       -0.0175
     25 C         145.5428  141.2979  163.9149 C.3     1  UNL1        0.0312
     26 C         144.8672  143.6252  162.9783 C.ar    1  UNL1        0.0165
     27 C         143.8567  144.7245  162.8352 C.ar    1  UNL1        0.1000
     28 N         142.5111  144.5957  163.4855 N.ar    1  UNL1       -0.2291
     29 C         140.3875  142.3115  161.8890 C.3     1  UNL1        0.1595
     30 C         139.4156  143.1419  161.1041 C.3     1  UNL1        0.1684
     31 O         138.5095  144.1053  161.8119 O.3     1  UNL1       -0.3516
     32 C         137.7314  144.2893  164.2839 C.3     1  UNL1        0.0346
     33 C         137.6429  143.6291  162.9399 C.3     1  UNL1        0.1423
@<TRIPOS>BOND
     1    32    33    1
     2    33    31    1
     3    31    30    1
     4    30    29    1
     5    29     1    1
     6     1     2   ar
     7     2     3   ar
     8     3     4    1
     9     3     5   ar
    10     5     6   ar
    11     6     7   ar
    12     7    11    1
    13    11    13    1
    14    13    14    1
    15    14    15    1
    16    15    16    1
    17    16    17    1
    18    17    18    1
    19     7     8   ar
    20     8     9   ar
    21     9    20    1
    22    20    22    1
    23    22    23   ar
    24    23    24   ar
    25    24    25    1
    26    24    26   ar
    27    26    27   ar
    28    27    28   ar
    29     9    10   ar
    30    10     1   ar
    31    10     5   ar
    32    18    13    1
    33    28    22   ar
    34    11    12    1
    35    16    19    1
    36    20    21    1
@<TRIPOS>MOLECULE
*****
 33 36 0 0 0
SMALL
GASTEIGER

@<TRIPOS>ATOM
      1 N         139.0698  143.2215  157.7319 N.ar    1  UNL1       -0.2444
      2 N         139.8988  143.6027  156.5414 N.ar    1  UNL1       -0.1719
      3 C         141.1640  144.2350  157.0409 C.ar    1  UNL1        0.0981
      4 C         142.2803  144.7647  156.1905 C.3     1  UNL1        0.0556
      5 C         141.1169  144.2445  158.5401 C.ar    1  UNL1        0.1193
      6 N         142.0854  144.7427  159.5716 N.ar    1  UNL1       -0.2109
      7 C         141.7595  144.6144  161.0301 C.ar    1  UNL1        0.2181
      8 N         140.4652  143.9880  161.4572 N.ar    1  UNL1       -0.1972
      9 C         139.4967  143.4899  160.4257 C.ar    1  UNL1        0.1550
     10 C         139.8226  143.6181  158.9672 C.ar    1  UNL1        0.1284
     11 N         142.7280  145.1125  162.0616 N.pl3   1  UNL1       -0.3045
     12 H         142.7873  146.0757  162.2567 H       1  UNL1        0.1496
     13 C         143.6061  144.1431  162.7960 C.3     1  UNL1        0.0745
     14 C         144.3870  143.1133  162.0346 C.3     1  UNL1        0.0367
     15 C         145.2651  142.1439  162.7689 C.3     1  UNL1        0.0703
     16 N         145.3623  142.2044  164.2646 N.3     1  UNL1       -0.2974
     17 C         144.5813  143.2342  165.0259 C.3     1  UNL1        0.0703
     18 C         143.7032  144.2036  164.2915 C.3     1  UNL1        0.0367
     19 H         146.3456  142.3546  164.4899 H       1  UNL1        0.1232
     20 N         138.2024  142.8635  160.8528 N.pl3   1  UNL1       -0.2820
     21 H         137.3537  143.3419  160.7111 H       1  UNL1        0.1551
     22 C         138.2012  141.5083  161.4958 C.ar    1  UNL1        0.1329
     23 C         138.2221  141.3875  162.9908 C.ar    1  UNL1        0.0302
     24 C         138.2209  140.0323  163.6338 C.ar    1  UNL1       -0.0175
     25 C         138.2417  139.9114  165.1288 C.3     1  UNL1        0.0312
     26 C         138.1988  138.7979  162.7818 C.ar    1  UNL1        0.0165
     27 C         138.1780  138.9187  161.2868 C.ar    1  UNL1        0.1000
     28 N         138.1792  140.2740  160.6438 N.ar    1  UNL1       -0.2291
     29 C         137.7242  142.5598  157.6939 C.3     1  UNL1        0.1595
     30 C         137.5887  141.1659  157.1562 C.3     1  UNL1        0.1684
     31 O         136.2314  140.5410  157.0256 O.3     1  UNL1       -0.3516
     32 C         134.3118  139.8603  155.4127 C.3     1  UNL1        0.0346
     33 C         135.3894  140.8224  155.8166 C.3     1  UNL1        0.1423
@<TRIPOS>BOND
     1    32    33    1
     2    33    31    1
     3    31    30    1
     4    30    29    1
     5    29     1    1
     6     1     2   ar
     7     2     3   ar
     8     3     4    1
     9     3     5   ar
    10     5     6   ar
    11     6     7   ar
    12     7    11    1
    13    11    13    1
    14    13    14    1
    15    14    15    1
    16    15    16    1
    17    16    17    1
    18    17    18    1
    19     7     8   ar
    20     8     9   ar
    21     9    20    1
    22    20    22    1
    23    22    23   ar
    24    23    24   ar
    25    24    25    1
    26    24    26   ar
    27    26    27   ar
    28    27    28   ar
    29     9    10   ar
    30    10     1   ar
    31    10     5   ar
    32    18    13    1
    33    28    22   ar
    34    11    12    1
    35    16    19    1
    36    20    21    1
@<TRIPOS>MOLECULE
*****
 33 36 0 0 0
SMALL
GASTEIGER

@<TRIPOS>ATOM
      1 N         138.4224  140.8802  162.9962 N.ar    1  UNL1       -0.2444
      2 N         138.3157  139.4015  163.2245 N.ar    1  UNL1       -0.1719
      3 C         139.1595  139.0543  164.4150 C.ar    1  UNL1        0.0981
      4 C         139.3430  137.6836  164.9960 C.3     1  UNL1        0.0556
      5 C         139.7877  140.3183  164.9225 C.ar    1  UNL1        0.1193
      6 N         140.7157  140.5875  166.0698 N.ar    1  UNL1       -0.2109
      7 C         141.1881  141.9852  166.3403 C.ar    1  UNL1        0.2181
      8 N         140.7325  143.1137  165.4634 N.ar    1  UNL1       -0.1972
      9 C         139.8045  142.8445  164.3161 C.ar    1  UNL1        0.1550
     10 C         139.3321  141.4468  164.0457 C.ar    1  UNL1        0.1284
     11 N         142.1161  142.2545  167.4876 N.pl3   1  UNL1       -0.3045
     12 H         143.0661  142.4488  167.3172 H       1  UNL1        0.1496
     13 C         141.5967  142.2277  168.8945 C.3     1  UNL1        0.0745
     14 C         142.2784  141.3827  169.9297 C.3     1  UNL1        0.0367
     15 C         141.7590  141.3559  171.3366 C.3     1  UNL1        0.0703
     16 N         140.5579  142.1740  171.7084 N.3     1  UNL1       -0.2974
     17 C         139.8763  143.0189  170.6733 C.3     1  UNL1        0.0703
     18 C         140.3957  143.0457  169.2664 C.3     1  UNL1        0.0367
     19 H         140.8501  142.8032  172.4562 H       1  UNL1        0.1232
     20 N         139.3489  143.9731  163.4392 N.pl3   1  UNL1       -0.2820
     21 H         138.5679  144.5135  163.6985 H       1  UNL1        0.1551
     22 C         140.0833  144.2782  162.1674 C.ar    1  UNL1        0.1329
     23 C         141.3154  143.5017  161.8080 C.ar    1  UNL1        0.0302
     24 C         142.0497  143.8069  160.5362 C.ar    1  UNL1       -0.0175
     25 C         143.2818  143.0304  160.1767 C.3     1  UNL1        0.0312
     26 C         141.5521  144.8885  159.6238 C.ar    1  UNL1        0.0165
     27 C         140.3201  145.6650  159.9832 C.ar    1  UNL1        0.1000
     28 N         139.5856  145.3598  161.2550 N.ar    1  UNL1       -0.2291
     29 C         137.7392  141.6561  161.9093 C.3     1  UNL1        0.1595
     30 C         138.2396  141.5694  160.4978 C.3     1  UNL1        0.1684
     31 O         138.2345  142.7887  159.6241 O.3     1  UNL1       -0.3516
     32 C         139.7891  142.4565  157.5692 C.3     1  UNL1        0.0346
     33 C         138.4162  142.6497  158.1417 C.3     1  UNL1        0.1423
@<TRIPOS>BOND
     1    32    33    1
     2    33    31    1
     3    31    30    1
     4    30    29    1
     5    29     1    1
     6     1     2   ar
     7     2     3   ar
     8     3     4    1
     9     3     5   ar
    10     5     6   ar
    11     6     7   ar
    12     7    11    1
    13    11    13    1
    14    13    14    1
    15    14    15    1
    16    15    16    1
    17    16    17    1
    18    17    18    1
    19     7     8   ar
    20     8     9   ar
    21     9    20    1
    22    20    22    1
    23    22    23   ar
    24    23    24   ar
    25    24    25    1
    26    24    26   ar
    27    26    27   ar
    28    27    28   ar
    29     9    10   ar
    30    10     1   ar
    31    10     5   ar
    32    18    13    1
    33    28    22   ar
    34    11    12    1
    35    16    19    1
    36    20    21    1
@<TRIPOS>MOLECULE
*****
 33 36 0 0 0
SMALL
GASTEIGER

@<TRIPOS>ATOM
      1 N         141.5273  143.2273  163.0175 N.ar    1  UNL1       -0.2444
      2 N         142.8340  143.8202  163.4546 N.ar    1  UNL1       -0.1719
      3 C         143.2107  143.1960  164.7655 C.ar    1  UNL1        0.0981
      4 C         144.4446  143.4976  165.5633 C.3     1  UNL1        0.0556
      5 C         142.1369  142.2174  165.1386 C.ar    1  UNL1        0.1193
      6 N         141.9720  141.3113  166.3225 N.ar    1  UNL1       -0.2109
      7 C         140.7667  140.4245  166.4260 C.ar    1  UNL1        0.2181
      8 N         139.7263  140.4438  165.3457 N.ar    1  UNL1       -0.1972
      9 C         139.8912  141.3499  164.1618 C.ar    1  UNL1        0.1550
     10 C         141.0965  142.2367  164.0582 C.ar    1  UNL1        0.1284
     11 N         140.6018  139.5183  167.6100 N.pl3   1  UNL1       -0.3045
     12 H         140.1548  138.6474  167.5048 H       1  UNL1        0.1496
     13 C         141.1178  139.9390  168.9541 C.3     1  UNL1        0.0745
     14 C         142.4835  139.5090  169.4014 C.3     1  UNL1        0.0367
     15 C         142.9996  139.9297  170.7455 C.3     1  UNL1        0.0703
     16 N         142.1499  140.7805  171.6424 N.3     1  UNL1       -0.2974
     17 C         140.7842  141.2104  171.1951 C.3     1  UNL1        0.0703
     18 C         140.2682  140.7897  169.8510 C.3     1  UNL1        0.0367
     19 H         142.6799  141.6316  171.8297 H       1  UNL1        0.1232
     20 N         138.8508  141.3692  163.0814 N.pl3   1  UNL1       -0.2820
     21 H         138.0534  141.9389  163.1760 H       1  UNL1        0.1551
     22 C         139.0252  140.5206  161.8569 C.ar    1  UNL1        0.1329
     23 C         138.4761  140.9826  160.5397 C.ar    1  UNL1        0.0302
     24 C         138.6505  140.1340  159.3152 C.ar    1  UNL1       -0.0175
     25 C         138.1014  140.5960  157.9980 C.3     1  UNL1        0.0312
     26 C         139.3741  138.8233  159.4079 C.ar    1  UNL1        0.0165
     27 C         139.9233  138.3613  160.7251 C.ar    1  UNL1        0.1000
     28 N         139.7488  139.2099  161.9496 N.ar    1  UNL1       -0.2291
     29 C         140.7823  143.5655  161.7603 C.3     1  UNL1        0.1595
     30 C         139.7217  144.6262  161.7793 C.3     1  UNL1        0.1684
     31 O         138.2964  144.2566  162.0651 O.3     1  UNL1       -0.3516
     32 C         138.6504  144.8206  164.5763 C.3     1  UNL1        0.0346
     33 C         137.7483  144.4008  163.4538 C.3     1  UNL1        0.1423
@<TRIPOS>BOND
     1    32    33    1
     2    33    31    1
     3    31    30    1
     4    30    29    1
     5    29     1    1
     6     1     2   ar
     7     2     3   ar
     8     3     4    1
     9     3     5   ar
    10     5     6   ar
    11     6     7   ar
    12     7    11    1
    13    11    13    1
    14    13    14    1
    15    14    15    1
    16    15    16    1
    17    16    17    1
    18    17    18    1
    19     7     8   ar
    20     8     9   ar
    21     9    20    1
    22    20    22    1
    23    22    23   ar
    24    23    24   ar
    25    24    25    1
    26    24    26   ar
    27    26    27   ar
    28    27    28   ar
    29     9    10   ar
    30    10     1   ar
    31    10     5   ar
    32    18    13    1
    33    28    22   ar
    34    11    12    1
    35    16    19    1
    36    20    21    1
