@<TRIPOS>MOLECULE
*****
 36 37 0 0 0
SMALL
GASTEIGER

@<TRIPOS>ATOM
      1 C         141.9944  145.1603  163.9635 C.3     1  UNL1        0.0427
      2 C         140.5979  145.2470  163.4228 C.3     1  UNL1        0.1971
      3 O         141.0697  146.1892  162.3554 O.3     1  UNL1       -0.3751
      4 H         140.3039  146.6074  161.9317 H       1  UNL1        0.2110
      5 C         140.1261  144.3048  164.4903 C.2     1  UNL1        0.2539
      6 O         138.8244  144.5572  165.1917 O.2     1  UNL1       -0.2721
      7 N         140.9560  143.1100  164.8564 N.am    1  UNL1       -0.2819
      8 H         141.8103  142.9443  164.3961 H       1  UNL1        0.1549
      9 C         140.4841  142.1678  165.9239 C.ar    1  UNL1        0.0503
     10 C         139.8668  140.8541  165.5454 C.ar    1  UNL1        0.0185
     11 C         139.3949  139.9119  166.6128 C.ar    1  UNL1        0.0726
     12 C         139.5405  140.2832  168.0588 C.ar    1  UNL1        0.0078
     13 C         140.1578  141.5968  168.4374 C.ar    1  UNL1        0.0726
     14 C         140.6297  142.5391  167.3699 C.ar    1  UNL1        0.0185
     15 C         138.7776  138.5983  166.2343 C.3     1  UNL1        0.4186
     16 F         138.1602  137.2846  165.8558 F       1  UNL1       -0.1659
     17 F         140.0849  138.1524  165.6496 F       1  UNL1       -0.1659
     18 F         137.4702  139.0443  166.8191 F       1  UNL1       -0.1659
     19 C         140.3034  141.9681  169.8834 C.3     1  UNL1        0.4186
     20 F         140.4489  142.3395  171.3294 F       1  UNL1       -0.1659
     21 F         141.6655  142.5298  169.6020 F       1  UNL1       -0.1659
     22 F         138.9412  141.4064  170.1647 F       1  UNL1       -0.1659
     23 C         139.2014  145.3337  162.8822 C.3     1  UNL1        0.2408
     24 O         138.7978  144.4910  161.7087 O.3     1  UNL1       -0.4724
     25 C         138.6810  143.0030  161.8587 C.ar    1  UNL1        0.1387
     26 C         137.5753  142.4171  162.6859 C.ar    1  UNL1        0.0377
     27 C         137.4586  140.9292  162.8358 C.ar    1  UNL1        0.0181
     28 C         138.4474  140.0273  162.1586 C.ar    1  UNL1        0.1230
     29 C         139.5531  140.6132  161.3315 C.ar    1  UNL1        0.0181
     30 C         139.6698  142.1011  161.1815 C.ar    1  UNL1        0.0377
     31 S         138.3306  138.5393  162.3086 S.3     1  UNL1        0.3127
     32 F         137.2657  139.3057  161.5816 F       1  UNL1       -0.0934
     33 F         137.1489  137.8178  161.7316 F       1  UNL1       -0.0934
     34 F         139.3955  137.7729  163.0356 F       1  UNL1       -0.0934
     35 F         138.2139  137.0514  162.4586 F       1  UNL1       -0.0934
     36 F         139.5124  139.2609  162.8857 F       1  UNL1       -0.0934
@<TRIPOS>BOND
     1     1     2    1
     2     2     3    1
     3     2    23    1
     4    23    24    1
     5    24    25    1
     6    25    26   ar
     7    26    27   ar
     8    27    28   ar
     9    28    31    1
    10    31    32    1
    11    31    33    1
    12    31    34    1
    13    31    35    1
    14    31    36    1
    15    28    29   ar
    16    29    30   ar
    17     2     5    1
    18     5     6    2
    19     5     7   am
    20     7     9    1
    21     9    10   ar
    22    10    11   ar
    23    11    15    1
    24    15    16    1
    25    15    17    1
    26    15    18    1
    27    11    12   ar
    28    12    13   ar
    29    13    19    1
    30    19    20    1
    31    19    21    1
    32    19    22    1
    33    13    14   ar
    34    30    25   ar
    35    14     9   ar
    36     3     4    1
    37     7     8    1
@<TRIPOS>MOLECULE
*****
 36 37 0 0 0
SMALL
GASTEIGER

@<TRIPOS>ATOM
      1 C         141.8198  145.2507  163.9839 C.3     1  UNL1        0.0427
      2 C         140.4165  145.2900  163.4555 C.3     1  UNL1        0.1971
      3 O         140.8418  146.2658  162.3987 O.3     1  UNL1       -0.3751
      4 H         140.0565  146.6596  161.9873 H       1  UNL1        0.2110
      5 C         139.9912  144.3143  164.5124 C.2     1  UNL1        0.2539
      6 O         138.6615  144.4729  165.1882 O.2     1  UNL1       -0.2721
      7 N         140.8956  143.1799  164.8935 N.am    1  UNL1       -0.2819
      8 H         141.7683  143.0758  164.4499 H       1  UNL1        0.1549
      9 C         140.4703  142.2041  165.9503 C.ar    1  UNL1        0.0503
     10 C         140.6815  142.5287  167.3995 C.ar    1  UNL1        0.0185
     11 C         140.2562  141.5530  168.4564 C.ar    1  UNL1        0.0726
     12 C         139.6197  140.2526  168.0641 C.ar    1  UNL1        0.0078
     13 C         139.4085  139.9279  166.6150 C.ar    1  UNL1        0.0726
     14 C         139.8338  140.9037  165.5581 C.ar    1  UNL1        0.0185
     15 C         140.4673  141.8776  169.9055 C.3     1  UNL1        0.4186
     16 F         140.6785  142.2023  171.3547 F       1  UNL1       -0.1659
     17 F         141.9373  142.0398  169.6549 F       1  UNL1       -0.1659
     18 F         138.9973  141.7155  170.1560 F       1  UNL1       -0.1659
     19 C         138.7721  138.6275  166.2227 C.3     1  UNL1        0.4186
     20 F         138.1356  137.3271  165.8305 F       1  UNL1       -0.1659
     21 F         140.0671  138.1772  165.6144 F       1  UNL1       -0.1659
     22 F         137.4770  139.0779  166.8311 F       1  UNL1       -0.1659
     23 C         139.0131  145.3294  162.9272 C.3     1  UNL1        0.2408
     24 O         138.6205  144.4522  161.7755 O.3     1  UNL1       -0.4724
     25 C         138.6312  142.9603  161.9313 C.ar    1  UNL1        0.1387
     26 C         139.7483  142.1526  161.3400 C.ar    1  UNL1        0.0377
     27 C         139.7589  140.6607  161.4958 C.ar    1  UNL1        0.0181
     28 C         138.6526  139.9767  162.2428 C.ar    1  UNL1        0.1230
     29 C         137.5355  140.7845  162.8341 C.ar    1  UNL1        0.0181
     30 C         137.5248  142.2763  162.6783 C.ar    1  UNL1        0.0377
     31 S         138.6633  138.4848  162.3986 S.3     1  UNL1        0.3127
     32 F         137.4288  139.1783  161.9036 F       1  UNL1       -0.0934
     33 F         137.4396  137.6865  162.0593 F       1  UNL1       -0.0934
     34 F         139.8978  137.7913  162.8936 F       1  UNL1       -0.0934
     35 F         138.6741  136.9930  162.5543 F       1  UNL1       -0.0934
     36 F         139.8871  139.2832  162.7378 F       1  UNL1       -0.0934
@<TRIPOS>BOND
     1     1     2    1
     2     2     3    1
     3     2    23    1
     4    23    24    1
     5    24    25    1
     6    25    26   ar
     7    26    27   ar
     8    27    28   ar
     9    28    31    1
    10    31    32    1
    11    31    33    1
    12    31    34    1
    13    31    35    1
    14    31    36    1
    15    28    29   ar
    16    29    30   ar
    17     2     5    1
    18     5     6    2
    19     5     7   am
    20     7     9    1
    21     9    10   ar
    22    10    11   ar
    23    11    15    1
    24    15    16    1
    25    15    17    1
    26    15    18    1
    27    11    12   ar
    28    12    13   ar
    29    13    19    1
    30    19    20    1
    31    19    21    1
    32    19    22    1
    33    13    14   ar
    34    30    25   ar
    35    14     9   ar
    36     3     4    1
    37     7     8    1
@<TRIPOS>MOLECULE
*****
 36 37 0 0 0
SMALL
GASTEIGER

@<TRIPOS>ATOM
      1 C         144.9335  140.9362  164.2272 C.3     1  UNL1        0.0427
      2 C         143.6243  141.2763  163.5789 C.3     1  UNL1        0.1971
      3 O         144.1692  140.8417  162.2507 O.3     1  UNL1       -0.3751
      4 H         143.5787  141.1459  161.5438 H       1  UNL1        0.2110
      5 C         143.0794  141.7108  164.9071 C.2     1  UNL1        0.2539
      6 O         142.5396  143.0999  165.0782 O.2     1  UNL1       -0.2721
      7 N         143.0743  140.7564  166.0643 N.am    1  UNL1       -0.2819
      8 H         143.4286  139.8447  165.9521 H       1  UNL1        0.1549
      9 C         142.5294  141.1910  167.3925 C.ar    1  UNL1        0.0503
     10 C         143.3339  142.1024  168.2714 C.ar    1  UNL1        0.0185
     11 C         142.7890  142.5369  169.5996 C.ar    1  UNL1        0.0726
     12 C         141.4397  142.0602  170.0491 C.ar    1  UNL1        0.0078
     13 C         140.6352  141.1488  169.1703 C.ar    1  UNL1        0.0726
     14 C         141.1801  140.7142  167.8420 C.ar    1  UNL1        0.0185
     15 C         143.5934  143.4483  170.4784 C.3     1  UNL1        0.4186
     16 F         144.3979  144.3597  171.3572 F       1  UNL1       -0.1659
     17 F         144.8194  142.6277  170.2071 F       1  UNL1       -0.1659
     18 F         142.3674  144.2688  170.7497 F       1  UNL1       -0.1659
     19 C         139.2859  140.6721  169.6197 C.3     1  UNL1        0.4186
     20 F         137.9365  140.1953  170.0692 F       1  UNL1       -0.1659
     21 F         139.0914  141.9461  170.3872 F       1  UNL1       -0.1659
     22 F         139.4804  139.3981  168.8523 F       1  UNL1       -0.1659
     23 C         142.3150  141.6164  162.9306 C.3     1  UNL1        0.2408
     24 O         141.3797  140.5217  162.5100 O.3     1  UNL1       -0.4724
     25 C         140.4833  139.8712  163.5217 C.ar    1  UNL1        0.1387
     26 C         140.5276  138.3846  163.7170 C.ar    1  UNL1        0.0377
     27 C         139.6313  137.7341  164.7286 C.ar    1  UNL1        0.0181
     28 C         138.6907  138.5702  165.5450 C.ar    1  UNL1        0.1230
     29 C         138.6465  140.0567  165.3497 C.ar    1  UNL1        0.0181
     30 C         139.5428  140.7072  164.3381 C.ar    1  UNL1        0.0377
     31 S         137.7944  137.9196  166.5567 S.3     1  UNL1        0.3127
     32 F         137.9156  139.4141  166.5130 F       1  UNL1       -0.0934
     33 F         137.0193  138.7635  167.5246 F       1  UNL1       -0.0934
     34 F         137.6732  136.4252  166.6003 F       1  UNL1       -0.0934
     35 F         136.8981  137.2691  167.5683 F       1  UNL1       -0.0934
     36 F         138.5696  137.0757  165.5886 F       1  UNL1       -0.0934
@<TRIPOS>BOND
     1     1     2    1
     2     2     3    1
     3     2    23    1
     4    23    24    1
     5    24    25    1
     6    25    26   ar
     7    26    27   ar
     8    27    28   ar
     9    28    31    1
    10    31    32    1
    11    31    33    1
    12    31    34    1
    13    31    35    1
    14    31    36    1
    15    28    29   ar
    16    29    30   ar
    17     2     5    1
    18     5     6    2
    19     5     7   am
    20     7     9    1
    21     9    10   ar
    22    10    11   ar
    23    11    15    1
    24    15    16    1
    25    15    17    1
    26    15    18    1
    27    11    12   ar
    28    12    13   ar
    29    13    19    1
    30    19    20    1
    31    19    21    1
    32    19    22    1
    33    13    14   ar
    34    30    25   ar
    35    14     9   ar
    36     3     4    1
    37     7     8    1
@<TRIPOS>MOLECULE
*****
 36 37 0 0 0
SMALL
GASTEIGER

@<TRIPOS>ATOM
      1 C         143.6712  140.3891  159.3635 C.3     1  UNL1        0.0427
      2 C         143.2049  139.1698  160.1022 C.3     1  UNL1        0.1971
      3 O         143.4730  138.3313  158.8877 O.3     1  UNL1       -0.3751
      4 H         143.0573  137.4618  158.9969 H       1  UNL1        0.2110
      5 C         142.9368  140.0082  161.3168 C.2     1  UNL1        0.2539
      6 O         141.8541  141.0460  161.2876 O.2     1  UNL1       -0.2721
      7 N         143.7514  139.8089  162.5605 N.am    1  UNL1       -0.2819
      8 H         144.4619  139.1277  162.5796 H       1  UNL1        0.1549
      9 C         143.4832  140.6473  163.7750 C.ar    1  UNL1        0.0503
     10 C         143.9338  142.0776  163.8134 C.ar    1  UNL1        0.0185
     11 C         143.6657  142.9160  165.0280 C.ar    1  UNL1        0.0726
     12 C         142.9470  142.3242  166.2041 C.ar    1  UNL1        0.0078
     13 C         142.4965  140.8941  166.1658 C.ar    1  UNL1        0.0726
     14 C         142.7646  140.0555  164.9512 C.ar    1  UNL1        0.0185
     15 C         144.1162  144.3462  165.0663 C.3     1  UNL1        0.4186
     16 F         144.5668  145.7765  165.1046 F       1  UNL1       -0.1659
     17 F         145.2114  143.9756  166.0219 F       1  UNL1       -0.1659
     18 F         143.0210  144.7168  164.1107 F       1  UNL1       -0.1659
     19 C         141.7778  140.3023  167.3419 C.3     1  UNL1        0.4186
     20 F         141.0592  139.7105  168.5181 F       1  UNL1       -0.1659
     21 F         141.2896  141.6665  167.7300 F       1  UNL1       -0.1659
     22 F         142.2660  138.9381  166.9539 F       1  UNL1       -0.1659
     23 C         142.7386  137.9504  160.8411 C.3     1  UNL1        0.2408
     24 O         141.2727  137.6484  160.9402 O.3     1  UNL1       -0.4724
     25 C         140.5545  137.8368  162.2436 C.ar    1  UNL1        0.1387
     26 C         141.0503  137.1468  163.4797 C.ar    1  UNL1        0.0377
     27 C         140.3321  137.3352  164.7830 C.ar    1  UNL1        0.0181
     28 C         139.1181  138.2136  164.8502 C.ar    1  UNL1        0.1230
     29 C         138.6223  138.9037  163.6141 C.ar    1  UNL1        0.0181
     30 C         139.3405  138.7153  162.3108 C.ar    1  UNL1        0.0377
     31 S         138.3999  138.4020  166.1536 S.3     1  UNL1        0.3127
     32 F         139.1645  139.5412  165.5471 F       1  UNL1       -0.0934
     33 F         138.4463  139.7295  166.8505 F       1  UNL1       -0.0934
     34 F         137.6354  137.2629  166.7601 F       1  UNL1       -0.0934
     35 F         137.6818  138.5904  167.4570 F       1  UNL1       -0.0934
     36 F         138.3536  137.0745  165.4567 F       1  UNL1       -0.0934
@<TRIPOS>BOND
     1     1     2    1
     2     2     3    1
     3     2    23    1
     4    23    24    1
     5    24    25    1
     6    25    26   ar
     7    26    27   ar
     8    27    28   ar
     9    28    31    1
    10    31    32    1
    11    31    33    1
    12    31    34    1
    13    31    35    1
    14    31    36    1
    15    28    29   ar
    16    29    30   ar
    17     2     5    1
    18     5     6    2
    19     5     7   am
    20     7     9    1
    21     9    10   ar
    22    10    11   ar
    23    11    15    1
    24    15    16    1
    25    15    17    1
    26    15    18    1
    27    11    12   ar
    28    12    13   ar
    29    13    19    1
    30    19    20    1
    31    19    21    1
    32    19    22    1
    33    13    14   ar
    34    30    25   ar
    35    14     9   ar
    36     3     4    1
    37     7     8    1
@<TRIPOS>MOLECULE
*****
 36 37 0 0 0
SMALL
GASTEIGER

@<TRIPOS>ATOM
      1 C         143.9916  144.6222  162.7065 C.3     1  UNL1        0.0427
      2 C         144.4139  143.1896  162.8446 C.3     1  UNL1        0.1971
      3 O         145.2594  143.3200  161.6126 O.3     1  UNL1       -0.3751
      4 H         145.5284  142.4385  161.3102 H       1  UNL1        0.2110
      5 C         143.5684  143.0592  164.0767 C.2     1  UNL1        0.2539
      6 O         142.5390  144.1030  164.3939 O.2     1  UNL1       -0.2721
      7 N         143.7524  141.8848  164.9918 N.am    1  UNL1       -0.2819
      8 H         144.4280  141.1997  164.7836 H       1  UNL1        0.1549
      9 C         142.9069  141.7544  166.2239 C.ar    1  UNL1        0.0503
     10 C         141.6387  140.9544  166.1820 C.ar    1  UNL1        0.0185
     11 C         140.7932  140.8240  167.4141 C.ar    1  UNL1        0.0726
     12 C         141.2158  141.4935  168.6881 C.ar    1  UNL1        0.0078
     13 C         142.4840  142.2935  168.7300 C.ar    1  UNL1        0.0726
     14 C         143.3295  142.4240  167.4978 C.ar    1  UNL1        0.0185
     15 C         139.5251  140.0240  167.3722 C.3     1  UNL1        0.4186
     16 F         138.2569  139.2239  167.3304 F       1  UNL1       -0.1659
     17 F         139.3196  140.4245  165.9414 F       1  UNL1       -0.1659
     18 F         139.7305  139.6234  168.8031 F       1  UNL1       -0.1659
     19 C         142.9066  142.9631  170.0040 C.3     1  UNL1        0.4186
     20 F         143.3293  143.6327  171.2780 F       1  UNL1       -0.1659
     21 F         141.5716  143.6415  170.0903 F       1  UNL1       -0.1659
     22 F         144.2416  142.2847  169.9176 F       1  UNL1       -0.1659
     23 C         144.8363  141.7569  162.9829 C.3     1  UNL1        0.2408
     24 O         144.2270  140.7070  162.1017 O.3     1  UNL1       -0.4724
     25 C         143.0255  139.9402  162.5693 C.ar    1  UNL1        0.1387
     26 C         141.6473  140.4616  162.2889 C.ar    1  UNL1        0.0377
     27 C         140.4459  139.6948  162.7565 C.ar    1  UNL1        0.0181
     28 C         140.6227  138.4067  163.5045 C.ar    1  UNL1        0.1230
     29 C         142.0009  137.8853  163.7849 C.ar    1  UNL1        0.0181
     30 C         143.2023  138.6521  163.3173 C.ar    1  UNL1        0.0377
     31 S         139.4212  137.6399  163.9721 S.3     1  UNL1        0.3127
     32 F         140.4917  138.0257  164.9494 F       1  UNL1       -0.0934
     33 F         139.2903  137.2590  165.4170 F       1  UNL1       -0.0934
     34 F         138.3508  137.2540  162.9947 F       1  UNL1       -0.0934
     35 F         138.2198  136.8732  164.4396 F       1  UNL1       -0.0934
     36 F         139.5523  138.0208  162.5271 F       1  UNL1       -0.0934
@<TRIPOS>BOND
     1     1     2    1
     2     2     3    1
     3     2    23    1
     4    23    24    1
     5    24    25    1
     6    25    26   ar
     7    26    27   ar
     8    27    28   ar
     9    28    31    1
    10    31    32    1
    11    31    33    1
    12    31    34    1
    13    31    35    1
    14    31    36    1
    15    28    29   ar
    16    29    30   ar
    17     2     5    1
    18     5     6    2
    19     5     7   am
    20     7     9    1
    21     9    10   ar
    22    10    11   ar
    23    11    15    1
    24    15    16    1
    25    15    17    1
    26    15    18    1
    27    11    12   ar
    28    12    13   ar
    29    13    19    1
    30    19    20    1
    31    19    21    1
    32    19    22    1
    33    13    14   ar
    34    30    25   ar
    35    14     9   ar
    36     3     4    1
    37     7     8    1
@<TRIPOS>MOLECULE
*****
 36 37 0 0 0
SMALL
GASTEIGER

@<TRIPOS>ATOM
      1 C         138.3938  137.1838  165.4224 C.3     1  UNL1        0.0427
      2 C         138.3372  138.3762  166.3306 C.3     1  UNL1        0.1971
      3 O         137.2300  137.7303  167.1096 O.3     1  UNL1       -0.3751
      4 H         136.8157  138.3886  167.6891 H       1  UNL1        0.2110
      5 C         139.4444  139.0222  165.5516 C.2     1  UNL1        0.2539
      6 O         139.1354  139.7709  164.2891 O.2     1  UNL1       -0.2721
      7 N         140.8606  138.9193  166.0350 N.am    1  UNL1       -0.2819
      8 H         141.0635  138.4279  166.8636 H       1  UNL1        0.1549
      9 C         141.9678  139.5652  165.2560 C.ar    1  UNL1        0.0503
     10 C         142.5962  140.8324  165.7556 C.ar    1  UNL1        0.0185
     11 C         143.7034  141.4783  164.9766 C.ar    1  UNL1        0.0726
     12 C         144.1822  140.8571  163.6980 C.ar    1  UNL1        0.0078
     13 C         143.5539  139.5900  163.1984 C.ar    1  UNL1        0.0726
     14 C         142.4467  138.9440  163.9774 C.ar    1  UNL1        0.0185
     15 C         144.3317  142.7454  165.4762 C.3     1  UNL1        0.4186
     16 F         144.9601  144.0126  165.9758 F       1  UNL1       -0.1659
     17 F         143.1462  142.9833  166.3638 F       1  UNL1       -0.1659
     18 F         145.5173  142.5074  164.5885 F       1  UNL1       -0.1659
     19 C         144.0328  138.9688  161.9198 C.3     1  UNL1        0.4186
     20 F         144.5117  138.3477  160.6412 F       1  UNL1       -0.1659
     21 F         143.2807  137.7132  162.2481 F       1  UNL1       -0.1659
     22 F         144.7849  140.2244  161.5915 F       1  UNL1       -0.1659
     23 C         138.2806  139.5687  167.2388 C.3     1  UNL1        0.2408
     24 O         138.8188  139.4738  168.6357 O.3     1  UNL1       -0.4724
     25 C         139.9889  140.3173  169.0475 C.ar    1  UNL1        0.1387
     26 C         141.0070  139.7716  170.0043 C.ar    1  UNL1        0.0377
     27 C         142.1770  140.6151  170.4161 C.ar    1  UNL1        0.0181
     28 C         142.3288  142.0043  169.8712 C.ar    1  UNL1        0.1230
     29 C         141.3107  142.5501  168.9144 C.ar    1  UNL1        0.0181
     30 C         140.1407  141.7066  168.5025 C.ar    1  UNL1        0.0377
     31 S         143.4989  142.8478  170.2830 S.3     1  UNL1        0.3127
     32 F         142.1161  143.2105  170.7373 F       1  UNL1       -0.0934
     33 F         143.2861  144.0539  171.1491 F       1  UNL1       -0.0934
     34 F         144.8817  142.4852  169.8288 F       1  UNL1       -0.0934
     35 F         144.6689  143.6913  170.6948 F       1  UNL1       -0.0934
     36 F         143.7116  141.6417  169.4169 F       1  UNL1       -0.0934
@<TRIPOS>BOND
     1     1     2    1
     2     2     3    1
     3     2    23    1
     4    23    24    1
     5    24    25    1
     6    25    26   ar
     7    26    27   ar
     8    27    28   ar
     9    28    31    1
    10    31    32    1
    11    31    33    1
    12    31    34    1
    13    31    35    1
    14    31    36    1
    15    28    29   ar
    16    29    30   ar
    17     2     5    1
    18     5     6    2
    19     5     7   am
    20     7     9    1
    21     9    10   ar
    22    10    11   ar
    23    11    15    1
    24    15    16    1
    25    15    17    1
    26    15    18    1
    27    11    12   ar
    28    12    13   ar
    29    13    19    1
    30    19    20    1
    31    19    21    1
    32    19    22    1
    33    13    14   ar
    34    30    25   ar
    35    14     9   ar
    36     3     4    1
    37     7     8    1
@<TRIPOS>MOLECULE
*****
 36 37 0 0 0
SMALL
GASTEIGER

@<TRIPOS>ATOM
      1 C         144.0151  140.1881  159.5017 C.3     1  UNL1        0.0427
      2 C         142.8193  139.3347  159.8048 C.3     1  UNL1        0.1971
      3 O         143.0932  138.5154  158.5785 O.3     1  UNL1       -0.3751
      4 H         142.3214  137.9622  158.3803 H       1  UNL1        0.2110
      5 C         142.5455  140.1540  161.0310 C.2     1  UNL1        0.2539
      6 O         141.3910  141.1114  161.0510 O.2     1  UNL1       -0.2721
      7 N         143.4262  140.0158  162.2375 N.am    1  UNL1       -0.2819
      8 H         144.1839  139.3874  162.2244 H       1  UNL1        0.1549
      9 C         143.1524  140.8351  163.4637 C.ar    1  UNL1        0.0503
     10 C         142.3237  140.2654  164.5767 C.ar    1  UNL1        0.0185
     11 C         142.0498  141.0847  165.8030 C.ar    1  UNL1        0.0726
     12 C         142.6047  142.4736  165.9163 C.ar    1  UNL1        0.0078
     13 C         143.4334  143.0434  164.8034 C.ar    1  UNL1        0.0726
     14 C         143.7072  142.2241  163.5770 C.ar    1  UNL1        0.0185
     15 C         141.2212  140.5149  166.9159 C.3     1  UNL1        0.4186
     16 F         140.3924  139.9452  168.0289 F       1  UNL1       -0.1659
     17 F         142.0742  139.2812  166.9196 F       1  UNL1       -0.1659
     18 F         140.3681  141.7488  166.9123 F       1  UNL1       -0.1659
     19 C         143.9882  144.4323  164.9167 C.3     1  UNL1        0.4186
     20 F         144.5431  145.8213  165.0300 F       1  UNL1       -0.1659
     21 F         145.0521  143.9314  165.8479 F       1  UNL1       -0.1659
     22 F         142.9243  144.9333  163.9855 F       1  UNL1       -0.1659
     23 C         141.6235  138.4813  160.1080 C.3     1  UNL1        0.2408
     24 O         141.6748  137.4909  161.2333 O.3     1  UNL1       -0.4724
     25 C         140.7935  137.6730  162.4334 C.ar    1  UNL1        0.1387
     26 C         139.4976  138.4175  162.3063 C.ar    1  UNL1        0.0377
     27 C         138.6163  138.5996  163.5063 C.ar    1  UNL1        0.0181
     28 C         139.0310  138.0371  164.8336 C.ar    1  UNL1        0.1230
     29 C         140.3270  137.2926  164.9608 C.ar    1  UNL1        0.0181
     30 C         141.2082  137.1105  163.7607 C.ar    1  UNL1        0.0377
     31 S         138.1497  138.2191  166.0337 S.3     1  UNL1        0.3127
     32 F         138.4782  136.8389  165.5469 F       1  UNL1       -0.0934
     33 F         137.5969  137.0210  166.7470 F       1  UNL1       -0.0934
     34 F         137.8213  139.5994  166.5205 F       1  UNL1       -0.0934
     35 F         137.2685  138.4013  167.2338 F       1  UNL1       -0.0934
     36 F         138.7026  139.4173  165.3204 F       1  UNL1       -0.0934
@<TRIPOS>BOND
     1     1     2    1
     2     2     3    1
     3     2    23    1
     4    23    24    1
     5    24    25    1
     6    25    26   ar
     7    26    27   ar
     8    27    28   ar
     9    28    31    1
    10    31    32    1
    11    31    33    1
    12    31    34    1
    13    31    35    1
    14    31    36    1
    15    28    29   ar
    16    29    30   ar
    17     2     5    1
    18     5     6    2
    19     5     7   am
    20     7     9    1
    21     9    10   ar
    22    10    11   ar
    23    11    15    1
    24    15    16    1
    25    15    17    1
    26    15    18    1
    27    11    12   ar
    28    12    13   ar
    29    13    19    1
    30    19    20    1
    31    19    21    1
    32    19    22    1
    33    13    14   ar
    34    30    25   ar
    35    14     9   ar
    36     3     4    1
    37     7     8    1
@<TRIPOS>MOLECULE
*****
 36 37 0 0 0
SMALL
GASTEIGER

@<TRIPOS>ATOM
      1 C         141.3825  138.6795  160.2154 C.3     1  UNL1        0.0427
      2 C         139.9711  138.5740  160.7120 C.3     1  UNL1        0.1971
      3 O         139.4655  138.7325  159.3087 O.3     1  UNL1       -0.3751
      4 H         138.5127  138.9132  159.3268 H       1  UNL1        0.2110
      5 C         140.4767  138.4155  162.1153 C.2     1  UNL1        0.2539
      6 O         140.3538  137.0928  162.8119 O.2     1  UNL1       -0.2721
      7 N         141.1051  139.5798  162.8221 N.am    1  UNL1       -0.2819
      8 H         141.1858  140.4480  162.3649 H       1  UNL1        0.1549
      9 C         141.6107  139.4214  164.2253 C.ar    1  UNL1        0.0503
     10 C         140.7543  139.8414  165.3830 C.ar    1  UNL1        0.0185
     11 C         141.2599  139.6830  166.7863 C.ar    1  UNL1        0.0726
     12 C         142.6218  139.1044  167.0320 C.ar    1  UNL1        0.0078
     13 C         143.4782  138.6844  165.8744 C.ar    1  UNL1        0.0726
     14 C         142.9727  138.8428  164.4710 C.ar    1  UNL1        0.0185
     15 C         140.4035  140.1030  167.9439 C.3     1  UNL1        0.4186
     16 F         139.5471  140.5231  169.1016 F       1  UNL1       -0.1659
     17 F         139.1966  140.0971  167.0532 F       1  UNL1       -0.1659
     18 F         141.6104  140.1089  168.8346 F       1  UNL1       -0.1659
     19 C         144.8402  138.1058  166.1201 C.3     1  UNL1        0.4186
     20 F         146.2021  137.5273  166.3657 F       1  UNL1       -0.1659
     21 F         145.4119  139.0027  165.0623 F       1  UNL1       -0.1659
     22 F         144.2684  137.2090  167.1778 F       1  UNL1       -0.1659
     23 C         138.5596  138.4684  161.2087 C.3     1  UNL1        0.2408
     24 O         137.6421  139.6516  161.1178 O.3     1  UNL1       -0.4724
     25 C         137.8356  140.8229  162.0346 C.ar    1  UNL1        0.1387
     26 C         138.1566  142.1741  161.4678 C.ar    1  UNL1        0.0377
     27 C         138.3501  143.3453  162.3846 C.ar    1  UNL1        0.0181
     28 C         138.2225  143.1655  163.8683 C.ar    1  UNL1        0.1230
     29 C         137.9014  141.8144  164.4352 C.ar    1  UNL1        0.0181
     30 C         137.7080  140.6431  163.5183 C.ar    1  UNL1        0.0377
     31 S         138.4160  144.3369  164.7851 S.3     1  UNL1        0.3127
     32 F         137.1098  143.5995  164.7758 F       1  UNL1       -0.0934
     33 F         137.3033  144.7708  165.6926 F       1  UNL1       -0.0934
     34 F         139.7222  145.0742  164.7945 F       1  UNL1       -0.0934
     35 F         138.6095  145.5082  165.7019 F       1  UNL1       -0.0934
     36 F         139.5287  143.9028  163.8776 F       1  UNL1       -0.0934
@<TRIPOS>BOND
     1     1     2    1
     2     2     3    1
     3     2    23    1
     4    23    24    1
     5    24    25    1
     6    25    26   ar
     7    26    27   ar
     8    27    28   ar
     9    28    31    1
    10    31    32    1
    11    31    33    1
    12    31    34    1
    13    31    35    1
    14    31    36    1
    15    28    29   ar
    16    29    30   ar
    17     2     5    1
    18     5     6    2
    19     5     7   am
    20     7     9    1
    21     9    10   ar
    22    10    11   ar
    23    11    15    1
    24    15    16    1
    25    15    17    1
    26    15    18    1
    27    11    12   ar
    28    12    13   ar
    29    13    19    1
    30    19    20    1
    31    19    21    1
    32    19    22    1
    33    13    14   ar
    34    30    25   ar
    35    14     9   ar
    36     3     4    1
    37     7     8    1
@<TRIPOS>MOLECULE
*****
 36 37 0 0 0
SMALL
GASTEIGER

@<TRIPOS>ATOM
      1 C         137.8918  139.2588  161.7251 C.3     1  UNL1        0.0427
      2 C         138.7572  138.7488  162.8390 C.3     1  UNL1        0.1971
      3 O         138.2771  137.3529  162.5729 O.3     1  UNL1       -0.3751
      4 H         138.5286  136.7780  163.3126 H       1  UNL1        0.2110
      5 C         139.2373  140.1447  163.1051 C.2     1  UNL1        0.2539
      6 O         138.3088  141.1543  163.7122 O.2     1  UNL1       -0.2721
      7 N         140.6461  140.5312  162.7640 N.am    1  UNL1       -0.2819
      8 H         141.2555  139.8686  162.3656 H       1  UNL1        0.1549
      9 C         141.1262  141.9271  163.0301 C.ar    1  UNL1        0.0503
     10 C         142.3388  142.1532  163.8836 C.ar    1  UNL1        0.0185
     11 C         142.8190  143.5492  164.1497 C.ar    1  UNL1        0.0726
     12 C         142.0865  144.7190  163.5623 C.ar    1  UNL1        0.0078
     13 C         140.8739  144.4929  162.7089 C.ar    1  UNL1        0.0726
     14 C         140.3937  143.0969  162.4427 C.ar    1  UNL1        0.0185
     15 C         144.0316  143.7753  165.0032 C.3     1  UNL1        0.4186
     16 F         145.2442  144.0015  165.8567 F       1  UNL1       -0.1659
     17 F         144.0885  142.3083  165.3109 F       1  UNL1       -0.1659
     18 F         143.9745  145.2423  164.6954 F       1  UNL1       -0.1659
     19 C         140.1414  145.6627  162.1215 C.3     1  UNL1        0.4186
     20 F         139.4089  146.8325  161.5341 F       1  UNL1       -0.1659
     21 F         141.0979  145.6815  160.9662 F       1  UNL1       -0.1659
     22 F         139.1849  145.6438  163.2768 F       1  UNL1       -0.1659
     23 C         139.6227  138.2388  163.9530 C.3     1  UNL1        0.2408
     24 O         139.2520  138.5190  165.3792 O.3     1  UNL1       -0.4724
     25 C         140.2144  139.2389  166.2768 C.ar    1  UNL1        0.1387
     26 C         141.6902  139.1400  166.0272 C.ar    1  UNL1        0.0377
     27 C         142.6525  139.8599  166.9247 C.ar    1  UNL1        0.0181
     28 C         142.1390  140.6787  168.0719 C.ar    1  UNL1        0.1230
     29 C         140.6633  140.7776  168.3215 C.ar    1  UNL1        0.0181
     30 C         139.7010  140.0577  167.4239 C.ar    1  UNL1        0.0377
     31 S         143.1014  141.3986  168.9695 S.3     1  UNL1        0.3127
     32 F         142.5996  140.0363  169.3468 F       1  UNL1       -0.0934
     33 F         143.5620  140.7562  170.2443 F       1  UNL1       -0.0934
     34 F         143.6033  142.7608  168.5922 F       1  UNL1       -0.0934
     35 F         144.0638  142.1185  169.8670 F       1  UNL1       -0.0934
     36 F         142.6409  142.0409  167.6946 F       1  UNL1       -0.0934
@<TRIPOS>BOND
     1     1     2    1
     2     2     3    1
     3     2    23    1
     4    23    24    1
     5    24    25    1
     6    25    26   ar
     7    26    27   ar
     8    27    28   ar
     9    28    31    1
    10    31    32    1
    11    31    33    1
    12    31    34    1
    13    31    35    1
    14    31    36    1
    15    28    29   ar
    16    29    30   ar
    17     2     5    1
    18     5     6    2
    19     5     7   am
    20     7     9    1
    21     9    10   ar
    22    10    11   ar
    23    11    15    1
    24    15    16    1
    25    15    17    1
    26    15    18    1
    27    11    12   ar
    28    12    13   ar
    29    13    19    1
    30    19    20    1
    31    19    21    1
    32    19    22    1
    33    13    14   ar
    34    30    25   ar
    35    14     9   ar
    36     3     4    1
    37     7     8    1
