@<TRIPOS>MOLECULE
*****
 31 35 0 0 0
SMALL
GASTEIGER

@<TRIPOS>ATOM
      1 C         143.5728  143.0007  163.6480 C.ar    1  UNL1        0.0687
      2 C         145.0234  142.9214  163.2747 C.ar    1  UNL1        0.0163
      3 C         145.8006  141.6679  163.5479 C.ar    1  UNL1        0.0029
      4 C         145.1272  140.4937  164.1943 C.ar    1  UNL1        0.0188
      5 C         143.6766  140.5731  164.5676 C.ar    1  UNL1        0.0801
      6 C         142.8994  141.8266  164.2945 C.ar    1  UNL1        0.1120
      7 N         141.4928  141.6129  164.7700 N.ar    1  UNL1       -0.2256
      8 C         141.4008  140.2272  165.3371 C.ar    1  UNL1        0.1439
      9 N         142.7504  139.5846  165.2120 N.ar    1  UNL1       -0.3094
     10 C         143.1107  138.1971  165.6536 C.3     1  UNL1        0.1319
     11 C         140.1745  139.5951  165.9258 C.ar    1  UNL1        0.0343
     12 C         139.6290  140.0905  167.2324 C.ar    1  UNL1        0.0053
     13 C         138.4028  139.4584  167.8211 C.ar    1  UNL1        0.0297
     14 C         137.7219  138.3309  167.1033 C.ar    1  UNL1        0.1401
     15 F         136.4956  137.6988  167.6921 F       1  UNL1       -0.2042
     16 C         138.2673  137.8356  165.7967 C.ar    1  UNL1        0.0297
     17 C         139.4936  138.4677  165.2080 C.ar    1  UNL1        0.0053
     18 N         142.7955  144.2543  163.3749 N.pl3   1  UNL1       -0.2967
     19 H         142.7134  144.9444  164.0723 H       1  UNL1        0.1537
     20 C         140.8391  144.8606  159.3681 C.ar    1  UNL1        0.0847
     21 C         140.2237  145.4539  160.6006 C.ar    1  UNL1        0.0220
     22 C         140.8758  145.2518  161.9363 C.ar    1  UNL1        0.0359
     23 C         142.1434  144.4564  162.0393 C.ar    1  UNL1        0.1323
     24 N         142.7588  143.8631  160.8068 N.ar    1  UNL1       -0.2276
     25 C         142.1066  144.0652  159.4711 C.ar    1  UNL1        0.1178
     26 C         138.9581  147.1378  154.9912 C.3     1  UNL1        0.0538
     27 C         139.3224  146.1094  156.0206 C.ar    1  UNL1        0.0786
     28 C         140.0285  146.3718  157.3177 C.ar    1  UNL1        0.0962
     29 N         140.1870  145.0626  158.0324 N.ar    1  UNL1       -0.2852
     30 C         139.5788  143.9910  157.1770 C.ar    1  UNL1        0.1825
     31 N         139.0445  144.6379  155.9336 N.ar    1  UNL1       -0.2280
@<TRIPOS>BOND
     1    26    27    1
     2    27    28   ar
     3    28    29   ar
     4    29    20    1
     5    20    21   ar
     6    21    22   ar
     7    22    23   ar
     8    23    18    1
     9    18     1    1
    10     1     2   ar
    11     2     3   ar
    12     3     4   ar
    13     4     5   ar
    14     5     6   ar
    15     6     7   ar
    16     7     8   ar
    17     8    11    1
    18    11    12   ar
    19    12    13   ar
    20    13    14   ar
    21    14    15    1
    22    14    16   ar
    23    16    17   ar
    24     8     9   ar
    25     9    10    1
    26    23    24   ar
    27    24    25   ar
    28    29    30   ar
    29    30    31   ar
    30    31    27   ar
    31    25    20   ar
    32     6     1   ar
    33    17    11   ar
    34     9     5   ar
    35    18    19    1
@<TRIPOS>MOLECULE
*****
 31 35 0 0 0
SMALL
GASTEIGER

@<TRIPOS>ATOM
      1 C         143.9899  142.3088  162.9234 C.ar    1  UNL1        0.0687
      2 C         144.4700  143.6972  162.6206 C.ar    1  UNL1        0.0163
      3 C         143.7143  144.8828  163.1434 C.ar    1  UNL1        0.0029
      4 C         142.4785  144.6799  163.9690 C.ar    1  UNL1        0.0188
      5 C         141.9984  143.2915  164.2719 C.ar    1  UNL1        0.0801
      6 C         142.7541  142.1059  163.7491 C.ar    1  UNL1        0.1120
      7 N         142.0455  140.8657  164.2072 N.ar    1  UNL1       -0.2256
      8 C         140.8518  141.2848  165.0131 C.ar    1  UNL1        0.1439
      9 N         140.8227  142.7840  165.0531 N.ar    1  UNL1       -0.3094
     10 C         139.7979  143.6277  165.7516 C.3     1  UNL1        0.1319
     11 C         139.8611  140.3660  165.6647 C.ar    1  UNL1        0.0343
     12 C         139.0903  139.3835  164.8338 C.ar    1  UNL1        0.0053
     13 C         138.0997  138.4648  165.4854 C.ar    1  UNL1        0.0297
     14 C         137.8799  138.5287  166.9678 C.ar    1  UNL1        0.1401
     15 F         136.8892  137.6099  167.6194 F       1  UNL1       -0.2042
     16 C         138.6507  139.5112  167.7987 C.ar    1  UNL1        0.0297
     17 C         139.6413  140.4299  167.1471 C.ar    1  UNL1        0.0053
     18 N         144.7456  141.1232  162.4007 N.pl3   1  UNL1       -0.2967
     19 H         145.6310  140.9019  162.7699 H       1  UNL1        0.1537
     20 C         142.9656  138.5778  159.1445 C.ar    1  UNL1        0.0847
     21 C         143.2833  137.9731  160.4800 C.ar    1  UNL1        0.0220
     22 C         143.8766  138.8215  161.5654 C.ar    1  UNL1        0.0359
     23 C         144.1523  140.2747  161.3153 C.ar    1  UNL1        0.1323
     24 N         143.8345  140.8793  159.9798 N.ar    1  UNL1       -0.2276
     25 C         143.2412  140.0308  158.8944 C.ar    1  UNL1        0.1178
     26 C         142.2577  134.7275  155.6012 C.3     1  UNL1        0.0538
     27 C         142.0468  135.9595  156.4304 C.ar    1  UNL1        0.0786
     28 C         142.9743  136.4796  157.4884 C.ar    1  UNL1        0.0962
     29 N         142.3722  137.7293  158.0591 N.ar    1  UNL1       -0.2852
     30 C         141.0726  137.9815  157.3539 C.ar    1  UNL1        0.1825
     31 N         140.8714  136.8878  156.3473 N.ar    1  UNL1       -0.2280
@<TRIPOS>BOND
     1    26    27    1
     2    27    28   ar
     3    28    29   ar
     4    29    20    1
     5    20    21   ar
     6    21    22   ar
     7    22    23   ar
     8    23    18    1
     9    18     1    1
    10     1     2   ar
    11     2     3   ar
    12     3     4   ar
    13     4     5   ar
    14     5     6   ar
    15     6     7   ar
    16     7     8   ar
    17     8    11    1
    18    11    12   ar
    19    12    13   ar
    20    13    14   ar
    21    14    15    1
    22    14    16   ar
    23    16    17   ar
    24     8     9   ar
    25     9    10    1
    26    23    24   ar
    27    24    25   ar
    28    29    30   ar
    29    30    31   ar
    30    31    27   ar
    31    25    20   ar
    32     6     1   ar
    33    17    11   ar
    34     9     5   ar
    35    18    19    1
@<TRIPOS>MOLECULE
*****
 31 35 0 0 0
SMALL
GASTEIGER

@<TRIPOS>ATOM
      1 C         143.3709  142.6332  162.7882 C.ar    1  UNL1        0.0687
      2 C         144.8563  142.7112  162.5947 C.ar    1  UNL1        0.0163
      3 C         145.7550  141.7277  163.2840 C.ar    1  UNL1        0.0029
      4 C         145.1683  140.6663  164.1667 C.ar    1  UNL1        0.0188
      5 C         143.6829  140.5883  164.3601 C.ar    1  UNL1        0.0801
      6 C         142.7842  141.5718  163.6709 C.ar    1  UNL1        0.1120
      7 N         141.3686  141.2501  164.0488 N.ar    1  UNL1       -0.2256
      8 C         141.3925  140.0678  164.9716 C.ar    1  UNL1        0.1439
      9 N         142.8228  139.6588  165.1640 N.ar    1  UNL1       -0.3094
     10 C         143.3079  138.5202  166.0115 C.3     1  UNL1        0.1319
     11 C         140.1962  139.4099  165.5930 C.ar    1  UNL1        0.0343
     12 C         139.6289  138.1600  164.9880 C.ar    1  UNL1        0.0053
     13 C         138.4326  137.5022  165.6094 C.ar    1  UNL1        0.0297
     14 C         137.8036  138.0943  166.8357 C.ar    1  UNL1        0.1401
     15 F         136.6072  137.4364  167.4570 F       1  UNL1       -0.2042
     16 C         138.3709  139.3441  167.4406 C.ar    1  UNL1        0.0297
     17 C         139.5672  140.0019  166.8193 C.ar    1  UNL1        0.0053
     18 N         142.4721  143.6167  162.0989 N.pl3   1  UNL1       -0.2967
     19 H         142.5184  144.5723  162.3308 H       1  UNL1        0.1537
     20 C         139.5640  142.1986  158.9713 C.ar    1  UNL1        0.0847
     21 C         141.0386  142.1543  158.6994 C.ar    1  UNL1        0.0220
     22 C         142.0079  142.6270  159.7420 C.ar    1  UNL1        0.0359
     23 C         141.5027  143.1440  161.0564 C.ar    1  UNL1        0.1323
     24 N         140.0283  143.1883  161.3281 N.ar    1  UNL1       -0.2276
     25 C         139.0589  142.7156  160.2856 C.ar    1  UNL1        0.1178
     26 C         135.8003  142.1487  155.2681 C.3     1  UNL1        0.0538
     27 C         136.8646  141.7030  156.2265 C.ar    1  UNL1        0.0786
     28 C         137.6393  142.5878  157.1576 C.ar    1  UNL1        0.0962
     29 N         138.5946  141.7260  157.9287 N.ar    1  UNL1       -0.2852
     30 C         138.4104  140.3084  157.4741 C.ar    1  UNL1        0.1825
     31 N         137.3412  140.2942  156.4222 N.ar    1  UNL1       -0.2280
@<TRIPOS>BOND
     1    26    27    1
     2    27    28   ar
     3    28    29   ar
     4    29    20    1
     5    20    21   ar
     6    21    22   ar
     7    22    23   ar
     8    23    18    1
     9    18     1    1
    10     1     2   ar
    11     2     3   ar
    12     3     4   ar
    13     4     5   ar
    14     5     6   ar
    15     6     7   ar
    16     7     8   ar
    17     8    11    1
    18    11    12   ar
    19    12    13   ar
    20    13    14   ar
    21    14    15    1
    22    14    16   ar
    23    16    17   ar
    24     8     9   ar
    25     9    10    1
    26    23    24   ar
    27    24    25   ar
    28    29    30   ar
    29    30    31   ar
    30    31    27   ar
    31    25    20   ar
    32     6     1   ar
    33    17    11   ar
    34     9     5   ar
    35    18    19    1
@<TRIPOS>MOLECULE
*****
 31 35 0 0 0
SMALL
GASTEIGER

@<TRIPOS>ATOM
      1 C         138.9381  139.6649  168.2725 C.ar    1  UNL1        0.0687
      2 C         138.4994  139.9228  169.6836 C.ar    1  UNL1        0.0163
      3 C         139.3272  140.7969  170.5783 C.ar    1  UNL1        0.0029
      4 C         140.5935  141.4133  170.0621 C.ar    1  UNL1        0.0188
      5 C         141.0321  141.1554  168.6510 C.ar    1  UNL1        0.0801
      6 C         140.2044  140.2813  167.7563 C.ar    1  UNL1        0.1120
      7 N         140.8848  140.2080  166.4214 N.ar    1  UNL1       -0.2256
      8 C         142.1330  141.0368  166.4912 C.ar    1  UNL1        0.1439
      9 N         142.2240  141.6224  167.8692 N.ar    1  UNL1       -0.3094
     10 C         143.3154  142.5177  168.3764 C.3     1  UNL1        0.1319
     11 C         143.1174  141.2438  165.3785 C.ar    1  UNL1        0.0343
     12 C         143.9620  140.0996  164.9017 C.ar    1  UNL1        0.0053
     13 C         144.9463  140.3066  163.7890 C.ar    1  UNL1        0.0297
     14 C         145.0861  141.6579  163.1530 C.ar    1  UNL1        0.1401
     15 F         146.0705  141.8649  162.0403 F       1  UNL1       -0.2042
     16 C         144.2415  142.8022  163.6298 C.ar    1  UNL1        0.0297
     17 C         143.2572  142.5951  164.7425 C.ar    1  UNL1        0.0053
     18 N         138.1103  138.7907  167.3776 N.pl3   1  UNL1       -0.2967
     19 H         137.4637  138.1591  167.7677 H       1  UNL1        0.1537
     20 C         138.5828  139.0556  162.9104 C.ar    1  UNL1        0.0847
     21 C         138.9653  137.7972  163.6317 C.ar    1  UNL1        0.0220
     22 C         138.8078  137.7089  165.1208 C.ar    1  UNL1        0.0359
     23 C         138.2678  138.8790  165.8886 C.ar    1  UNL1        0.1323
     24 N         137.8854  140.1373  165.1672 N.ar    1  UNL1       -0.2276
     25 C         138.0429  140.2256  163.6781 C.ar    1  UNL1        0.1178
     26 C         140.4037  138.3598  158.0031 C.3     1  UNL1        0.0538
     27 C         139.5773  138.8241  159.1656 C.ar    1  UNL1        0.0786
     28 C         139.7949  138.4585  160.6040 C.ar    1  UNL1        0.0962
     29 N         138.7403  139.1439  161.4213 N.ar    1  UNL1       -0.2852
     30 C         137.8708  139.9331  160.4879 C.ar    1  UNL1        0.1825
     31 N         138.3881  139.7355  159.0939 N.ar    1  UNL1       -0.2280
@<TRIPOS>BOND
     1    26    27    1
     2    27    28   ar
     3    28    29   ar
     4    29    20    1
     5    20    21   ar
     6    21    22   ar
     7    22    23   ar
     8    23    18    1
     9    18     1    1
    10     1     2   ar
    11     2     3   ar
    12     3     4   ar
    13     4     5   ar
    14     5     6   ar
    15     6     7   ar
    16     7     8   ar
    17     8    11    1
    18    11    12   ar
    19    12    13   ar
    20    13    14   ar
    21    14    15    1
    22    14    16   ar
    23    16    17   ar
    24     8     9   ar
    25     9    10    1
    26    23    24   ar
    27    24    25   ar
    28    29    30   ar
    29    30    31   ar
    30    31    27   ar
    31    25    20   ar
    32     6     1   ar
    33    17    11   ar
    34     9     5   ar
    35    18    19    1
@<TRIPOS>MOLECULE
*****
 31 35 0 0 0
SMALL
GASTEIGER

@<TRIPOS>ATOM
      1 C         138.6197  140.6141  158.7818 C.ar    1  UNL1        0.0687
      2 C         137.8980  140.7491  157.4738 C.ar    1  UNL1        0.0163
      3 C         137.9755  142.0339  156.7036 C.ar    1  UNL1        0.0029
      4 C         138.7748  143.1837  157.2414 C.ar    1  UNL1        0.0188
      5 C         139.4965  143.0487  158.5494 C.ar    1  UNL1        0.0801
      6 C         139.4189  141.7639  159.3196 C.ar    1  UNL1        0.1120
      7 N         140.2301  141.9240  160.5712 N.ar    1  UNL1       -0.2256
      8 C         140.8090  143.3078  160.5744 C.ar    1  UNL1        0.1439
      9 N         140.3556  144.0029  159.3249 N.ar    1  UNL1       -0.3094
     10 C         140.7007  145.4058  158.9216 C.3     1  UNL1        0.1319
     11 C         141.6871  143.8937  161.6401 C.ar    1  UNL1        0.0343
     12 C         141.0948  144.7758  162.6989 C.ar    1  UNL1        0.0053
     13 C         141.9730  145.3617  163.7645 C.ar    1  UNL1        0.0297
     14 C         143.4434  145.0654  163.7713 C.ar    1  UNL1        0.1401
     15 F         144.3216  145.6514  164.8370 F       1  UNL1       -0.2042
     16 C         144.0357  144.1833  162.7126 C.ar    1  UNL1        0.0297
     17 C         143.1576  143.5975  161.6470 C.ar    1  UNL1        0.0053
     18 N         138.5421  139.3293  159.5521 N.pl3   1  UNL1       -0.2967
     19 H         138.4663  138.4723  159.0735 H       1  UNL1        0.1537
     20 C         138.6561  139.3923  164.0502 C.ar    1  UNL1        0.0847
     21 C         139.5586  138.4662  163.2900 C.ar    1  UNL1        0.0220
     22 C         139.5206  138.4452  161.7906 C.ar    1  UNL1        0.0359
     23 C         138.5801  139.3503  161.0514 C.ar    1  UNL1        0.1323
     24 N         137.6776  140.2764  161.8116 N.ar    1  UNL1       -0.2276
     25 C         137.7156  140.2974  163.3110 C.ar    1  UNL1        0.1178
     26 C         139.9396  140.6129  169.0245 C.3     1  UNL1        0.0538
     27 C         139.2840  139.9744  167.8360 C.ar    1  UNL1        0.0786
     28 C         139.5764  140.2811  166.3971 C.ar    1  UNL1        0.0962
     29 N         138.6940  139.4133  165.5495 N.ar    1  UNL1       -0.2852
     30 C         137.8563  138.5703  166.4646 C.ar    1  UNL1        0.1825
     31 N         138.2209  138.9170  167.8777 N.ar    1  UNL1       -0.2280
@<TRIPOS>BOND
     1    26    27    1
     2    27    28   ar
     3    28    29   ar
     4    29    20    1
     5    20    21   ar
     6    21    22   ar
     7    22    23   ar
     8    23    18    1
     9    18     1    1
    10     1     2   ar
    11     2     3   ar
    12     3     4   ar
    13     4     5   ar
    14     5     6   ar
    15     6     7   ar
    16     7     8   ar
    17     8    11    1
    18    11    12   ar
    19    12    13   ar
    20    13    14   ar
    21    14    15    1
    22    14    16   ar
    23    16    17   ar
    24     8     9   ar
    25     9    10    1
    26    23    24   ar
    27    24    25   ar
    28    29    30   ar
    29    30    31   ar
    30    31    27   ar
    31    25    20   ar
    32     6     1   ar
    33    17    11   ar
    34     9     5   ar
    35    18    19    1
@<TRIPOS>MOLECULE
*****
 31 35 0 0 0
SMALL
GASTEIGER

@<TRIPOS>ATOM
      1 C         136.2418  141.6825  155.2091 C.ar    1  UNL1        0.0687
      2 C         136.3512  142.9840  154.4716 C.ar    1  UNL1        0.0163
      3 C         137.2300  144.0765  155.0047 C.ar    1  UNL1        0.0029
      4 C         137.9994  143.8675  156.2752 C.ar    1  UNL1        0.0188
      5 C         137.8900  142.5659  157.0128 C.ar    1  UNL1        0.0801
      6 C         137.0112  141.4734  156.4797 C.ar    1  UNL1        0.1120
      7 N         137.1020  140.3063  157.4176 N.ar    1  UNL1       -0.2256
      8 C         138.0369  140.6775  158.5303 C.ar    1  UNL1        0.1439
      9 N         138.5239  142.0740  158.2801 N.ar    1  UNL1       -0.3094
     10 C         139.4774  142.8436  159.1453 C.3     1  UNL1        0.1319
     11 C         138.4180  139.8054  159.6898 C.ar    1  UNL1        0.0343
     12 C         137.4499  139.5880  160.8147 C.ar    1  UNL1        0.0053
     13 C         137.8310  138.7159  161.9741 C.ar    1  UNL1        0.0297
     14 C         139.1802  138.0611  162.0084 C.ar    1  UNL1        0.1401
     15 F         139.5612  137.1890  163.1679 F       1  UNL1       -0.2042
     16 C         140.1482  138.2785  160.8835 C.ar    1  UNL1        0.0297
     17 C         139.7671  139.1506  159.7241 C.ar    1  UNL1        0.0053
     18 N         135.3630  140.5899  154.6761 N.pl3   1  UNL1       -0.2967
     19 H         135.6313  140.0911  153.8709 H       1  UNL1        0.1537
     20 C         131.5000  139.5926  156.7576 C.ar    1  UNL1        0.0847
     21 C         131.6332  140.8808  156.0007 C.ar    1  UNL1        0.0220
     22 C         132.9209  141.2132  155.3068 C.ar    1  UNL1        0.0359
     23 C         134.0753  140.2575  155.3700 C.ar    1  UNL1        0.1323
     24 N         133.9421  138.9694  156.1269 N.ar    1  UNL1       -0.2276
     25 C         132.6544  138.6369  156.8207 C.ar    1  UNL1        0.1178
     26 C         127.9527  137.3250  159.9444 C.3     1  UNL1        0.0538
     27 C         128.5818  138.2178  158.9163 C.ar    1  UNL1        0.0786
     28 C         130.0233  138.2060  158.5018 C.ar    1  UNL1        0.0962
     29 N         130.2124  139.2601  157.4515 N.ar    1  UNL1       -0.2852
     30 C         128.8876  139.9234  157.2168 C.ar    1  UNL1        0.1825
     31 N         127.8798  139.2792  158.1221 N.ar    1  UNL1       -0.2280
@<TRIPOS>BOND
     1    26    27    1
     2    27    28   ar
     3    28    29   ar
     4    29    20    1
     5    20    21   ar
     6    21    22   ar
     7    22    23   ar
     8    23    18    1
     9    18     1    1
    10     1     2   ar
    11     2     3   ar
    12     3     4   ar
    13     4     5   ar
    14     5     6   ar
    15     6     7   ar
    16     7     8   ar
    17     8    11    1
    18    11    12   ar
    19    12    13   ar
    20    13    14   ar
    21    14    15    1
    22    14    16   ar
    23    16    17   ar
    24     8     9   ar
    25     9    10    1
    26    23    24   ar
    27    24    25   ar
    28    29    30   ar
    29    30    31   ar
    30    31    27   ar
    31    25    20   ar
    32     6     1   ar
    33    17    11   ar
    34     9     5   ar
    35    18    19    1
@<TRIPOS>MOLECULE
*****
 31 35 0 0 0
SMALL
GASTEIGER

@<TRIPOS>ATOM
      1 C         143.3713  141.3181  161.7832 C.ar    1  UNL1        0.0687
      2 C         144.7912  141.8004  161.8168 C.ar    1  UNL1        0.0163
      3 C         145.5753  141.7354  163.0938 C.ar    1  UNL1        0.0029
      4 C         144.9396  141.1881  164.3373 C.ar    1  UNL1        0.0188
      5 C         143.5196  140.7057  164.3037 C.ar    1  UNL1        0.0801
      6 C         142.7355  140.7708  163.0267 C.ar    1  UNL1        0.1120
      7 N         141.3644  140.2254  163.2963 N.ar    1  UNL1       -0.2256
      8 C         141.3011  139.8234  164.7401 C.ar    1  UNL1        0.1439
      9 N         142.6332  140.1203  165.3626 N.ar    1  UNL1       -0.3094
     10 C         143.0122  139.8747  166.7930 C.3     1  UNL1        0.1319
     11 C         140.1142  139.2289  165.4386 C.ar    1  UNL1        0.0343
     12 C         139.5006  139.9375  166.6096 C.ar    1  UNL1        0.0053
     13 C         138.3138  139.3430  167.3081 C.ar    1  UNL1        0.0297
     14 C         137.7406  138.0399  166.8356 C.ar    1  UNL1        0.1401
     15 F         136.5537  137.4454  167.5342 F       1  UNL1       -0.2042
     16 C         138.3542  137.3313  165.6646 C.ar    1  UNL1        0.0297
     17 C         139.5410  137.9258  164.9661 C.ar    1  UNL1        0.0053
     18 N         142.5871  141.3831  160.5061 N.pl3   1  UNL1       -0.2967
     19 H         142.1289  142.2165  160.2517 H       1  UNL1        0.1537
     20 C         142.3290  137.7687  157.8379 C.ar    1  UNL1        0.0847
     21 C         142.0076  139.1284  157.2920 C.ar    1  UNL1        0.0220
     22 C         142.0936  140.3332  158.1814 C.ar    1  UNL1        0.0359
     23 C         142.5011  140.1783  159.6167 C.ar    1  UNL1        0.1323
     24 N         142.8224  138.8186  160.1626 N.ar    1  UNL1       -0.2276
     25 C         142.7364  137.6138  159.2732 C.ar    1  UNL1        0.1178
     26 C         143.4205  133.1559  155.5115 C.3     1  UNL1        0.0538
     27 C         142.7447  134.4436  155.8791 C.ar    1  UNL1        0.0786
     28 C         143.2183  135.4249  156.9100 C.ar    1  UNL1        0.0962
     29 N         142.2430  136.5639  156.9485 N.ar    1  UNL1       -0.2852
     30 C         141.1665  136.2864  155.9415 C.ar    1  UNL1        0.1825
     31 N         141.4765  134.9760  155.2805 N.ar    1  UNL1       -0.2280
@<TRIPOS>BOND
     1    26    27    1
     2    27    28   ar
     3    28    29   ar
     4    29    20    1
     5    20    21   ar
     6    21    22   ar
     7    22    23   ar
     8    23    18    1
     9    18     1    1
    10     1     2   ar
    11     2     3   ar
    12     3     4   ar
    13     4     5   ar
    14     5     6   ar
    15     6     7   ar
    16     7     8   ar
    17     8    11    1
    18    11    12   ar
    19    12    13   ar
    20    13    14   ar
    21    14    15    1
    22    14    16   ar
    23    16    17   ar
    24     8     9   ar
    25     9    10    1
    26    23    24   ar
    27    24    25   ar
    28    29    30   ar
    29    30    31   ar
    30    31    27   ar
    31    25    20   ar
    32     6     1   ar
    33    17    11   ar
    34     9     5   ar
    35    18    19    1
@<TRIPOS>MOLECULE
*****
 31 35 0 0 0
SMALL
GASTEIGER

@<TRIPOS>ATOM
      1 C         136.9612  141.1865  156.3406 C.ar    1  UNL1        0.0687
      2 C         137.2371  142.3780  155.4721 C.ar    1  UNL1        0.0163
      3 C         138.1084  143.4892  155.9781 C.ar    1  UNL1        0.0029
      4 C         138.7038  143.4089  157.3525 C.ar    1  UNL1        0.0188
      5 C         138.4279  142.2174  158.2209 C.ar    1  UNL1        0.0801
      6 C         137.5566  141.1062  157.7150 C.ar    1  UNL1        0.1120
      7 N         137.4628  140.0644  158.7901 N.ar    1  UNL1       -0.2256
      8 C         138.2762  140.5318  159.9606 C.ar    1  UNL1        0.1439
      9 N         138.8726  141.8624  159.6088 N.ar    1  UNL1       -0.3094
     10 C         139.7583  142.6923  160.4902 C.3     1  UNL1        0.1319
     11 C         138.4607  139.7975  161.2556 C.ar    1  UNL1        0.0343
     12 C         139.1838  138.4835  161.2762 C.ar    1  UNL1        0.0053
     13 C         139.3682  137.7493  162.5711 C.ar    1  UNL1        0.0297
     14 C         138.8296  138.3290  163.8454 C.ar    1  UNL1        0.1401
     15 F         139.0141  137.5947  165.1403 F       1  UNL1       -0.2042
     16 C         138.1065  139.6430  163.8247 C.ar    1  UNL1        0.0297
     17 C         137.9221  140.3773  162.5298 C.ar    1  UNL1        0.0053
     18 N         136.0898  140.0753  155.8346 N.pl3   1  UNL1       -0.2967
     19 H         136.4860  139.3327  155.3238 H       1  UNL1        0.1537
     20 C         131.6650  140.1359  156.6514 C.ar    1  UNL1        0.0847
     21 C         132.2580  141.0938  155.6611 C.ar    1  UNL1        0.0220
     22 C         133.7330  141.0736  155.3888 C.ar    1  UNL1        0.0359
     23 C         134.6149  140.0955  156.1069 C.ar    1  UNL1        0.1323
     24 N         134.0218  139.1376  157.0971 N.ar    1  UNL1       -0.2276
     25 C         132.5469  139.1578  157.3694 C.ar    1  UNL1        0.1178
     26 C         126.5041  141.1889  156.2818 C.3     1  UNL1        0.0538
     27 C         127.8178  140.6401  156.7538 C.ar    1  UNL1        0.0786
     28 C         129.1572  140.9008  156.1309 C.ar    1  UNL1        0.0962
     29 N         130.1901  140.1560  156.9237 N.ar    1  UNL1       -0.2852
     30 C         129.4890  139.4351  158.0367 C.ar    1  UNL1        0.1825
     31 N         128.0229  139.7342  157.9317 N.ar    1  UNL1       -0.2280
@<TRIPOS>BOND
     1    26    27    1
     2    27    28   ar
     3    28    29   ar
     4    29    20    1
     5    20    21   ar
     6    21    22   ar
     7    22    23   ar
     8    23    18    1
     9    18     1    1
    10     1     2   ar
    11     2     3   ar
    12     3     4   ar
    13     4     5   ar
    14     5     6   ar
    15     6     7   ar
    16     7     8   ar
    17     8    11    1
    18    11    12   ar
    19    12    13   ar
    20    13    14   ar
    21    14    15    1
    22    14    16   ar
    23    16    17   ar
    24     8     9   ar
    25     9    10    1
    26    23    24   ar
    27    24    25   ar
    28    29    30   ar
    29    30    31   ar
    30    31    27   ar
    31    25    20   ar
    32     6     1   ar
    33    17    11   ar
    34     9     5   ar
    35    18    19    1
@<TRIPOS>MOLECULE
*****
 31 35 0 0 0
SMALL
GASTEIGER

@<TRIPOS>ATOM
      1 C         139.0192  138.1296  164.6337 C.ar    1  UNL1        0.0687
      2 C         138.1389  137.5009  165.6727 C.ar    1  UNL1        0.0163
      3 C         137.9193  138.1905  166.9865 C.ar    1  UNL1        0.0029
      4 C         138.5801  139.5088  167.2613 C.ar    1  UNL1        0.0188
      5 C         139.4605  140.1375  166.2222 C.ar    1  UNL1        0.0801
      6 C         139.6800  139.4479  164.9084 C.ar    1  UNL1        0.1120
      7 N         140.5942  140.3038  164.0826 N.ar    1  UNL1       -0.2256
      8 C         140.9395  141.5224  164.8862 C.ar    1  UNL1        0.1439
      9 N         140.2389  141.4196  166.2085 N.ar    1  UNL1       -0.3094
     10 C         140.3050  142.4228  167.3217 C.3     1  UNL1        0.1319
     11 C         141.8293  142.6466  164.4449 C.ar    1  UNL1        0.0343
     12 C         143.3200  142.4944  164.5136 C.ar    1  UNL1        0.0053
     13 C         144.2097  143.6185  164.0723 C.ar    1  UNL1        0.0297
     14 C         143.6088  144.8947  163.5624 C.ar    1  UNL1        0.1401
     15 F         144.4986  146.0189  163.1211 F       1  UNL1       -0.2042
     16 C         142.1181  145.0469  163.4937 C.ar    1  UNL1        0.0297
     17 C         141.2284  143.9228  163.9350 C.ar    1  UNL1        0.0053
     18 N         139.2388  137.4400  163.3197 N.pl3   1  UNL1       -0.2967
     19 H         139.5072  136.4930  163.2996 H       1  UNL1        0.1537
     20 C         138.6710  139.6999  159.4700 C.ar    1  UNL1        0.0847
     21 C         137.5529  139.6240  160.4671 C.ar    1  UNL1        0.0220
     22 C         137.7421  138.8707  161.7503 C.ar    1  UNL1        0.0359
     23 C         139.0496  138.1933  162.0365 C.ar    1  UNL1        0.1323
     24 N         140.1677  138.2693  161.0395 N.ar    1  UNL1       -0.2276
     25 C         139.9784  139.0226  159.7563 C.ar    1  UNL1        0.1178
     26 C         137.5229  143.5229  156.0136 C.3     1  UNL1        0.0538
     27 C         137.9540  142.2105  156.5980 C.ar    1  UNL1        0.0786
     28 C         137.9879  141.8636  158.0570 C.ar    1  UNL1        0.0962
     29 N         138.4818  140.4532  158.1868 N.ar    1  UNL1       -0.2852
     30 C         138.7531  139.9284  156.8081 C.ar    1  UNL1        0.1825
     31 N         138.4270  141.0144  155.8261 N.ar    1  UNL1       -0.2280
@<TRIPOS>BOND
     1    26    27    1
     2    27    28   ar
     3    28    29   ar
     4    29    20    1
     5    20    21   ar
     6    21    22   ar
     7    22    23   ar
     8    23    18    1
     9    18     1    1
    10     1     2   ar
    11     2     3   ar
    12     3     4   ar
    13     4     5   ar
    14     5     6   ar
    15     6     7   ar
    16     7     8   ar
    17     8    11    1
    18    11    12   ar
    19    12    13   ar
    20    13    14   ar
    21    14    15    1
    22    14    16   ar
    23    16    17   ar
    24     8     9   ar
    25     9    10    1
    26    23    24   ar
    27    24    25   ar
    28    29    30   ar
    29    30    31   ar
    30    31    27   ar
    31    25    20   ar
    32     6     1   ar
    33    17    11   ar
    34     9     5   ar
    35    18    19    1
