@<TRIPOS>MOLECULE
*****
 30 34 0 0 0
SMALL
GASTEIGER

@<TRIPOS>ATOM
      1 C         138.9851  140.6707  164.6571 C.ar    1  UNL1        0.0681
      2 C         137.7779  141.4068  164.1565 C.ar    1  UNL1        0.0208
      3 C         137.4487  141.4000  162.6931 C.ar    1  UNL1        0.0384
      4 C         138.3268  140.6570  161.7303 C.ar    1  UNL1        0.1385
      5 C         139.5340  139.9209  162.2310 C.ar    1  UNL1        0.0384
      6 C         139.8632  139.9277  163.6943 C.ar    1  UNL1        0.0208
      7 C         137.9629  138.4809  166.4347 C.3     1  UNL1        0.0723
      8 C         138.8032  139.5826  167.0094 C.ar    1  UNL1        0.1268
      9 N         139.1323  139.5895  168.4728 N.ar    1  UNL1       -0.2296
     10 C         139.9726  140.6912  169.0475 C.ar    1  UNL1        0.1145
     11 C         140.3017  140.6980  170.5109 C.ar    1  UNL1        0.1578
     12 F         139.7905  139.6031  171.3997 F       1  UNL1       -0.2026
     13 C         141.1419  141.7997  171.0854 C.ar    1  UNL1        0.0312
     14 C         141.6530  142.8946  170.1966 C.ar    1  UNL1        0.0026
     15 C         141.3239  142.8878  168.7332 C.ar    1  UNL1        0.0064
     16 C         140.4837  141.7861  168.1586 C.ar    1  UNL1        0.0764
     17 C         140.1545  141.7792  166.6952 C.ar    1  UNL1        0.2670
     18 O         140.6656  142.8741  165.8064 O.2     1  UNL1       -0.2665
     19 N         139.3143  140.6775  166.1206 N.ar    1  UNL1       -0.2626
     20 O         137.9976  140.6501  160.2668 O.3     1  UNL1       -0.4791
     21 C         138.4944  141.7541  159.3812 C.3     1  UNL1        0.1687
     22 C         139.4193  142.7988  159.9320 C.3     1  UNL1        0.0609
     23 C         139.9161  143.9028  159.0464 C.3     1  UNL1        0.0758
     24 N         139.4880  143.9622  157.6100 N.3     1  UNL1       -0.2737
     25 C         138.5632  142.9175  157.0592 C.3     1  UNL1        0.0758
     26 C         138.0664  141.8135  157.9448 C.3     1  UNL1        0.0609
     27 C         139.9848  145.0662  156.7243 C.3     1  UNL1        0.0575
     28 C         141.0233  145.1762  155.6475 C.3     1  UNL1        0.0160
     29 C         140.6874  146.6275  155.4719 C.3     1  UNL1        0.0028
     30 C         139.6489  146.5175  156.5486 C.3     1  UNL1        0.0160
@<TRIPOS>BOND
     1     7     8    1
     2     8     9   ar
     3     9    10   ar
     4    10    11   ar
     5    11    12    1
     6    11    13   ar
     7    13    14   ar
     8    14    15   ar
     9    15    16   ar
    10    16    17   ar
    11    17    18    2
    12    17    19   ar
    13    19     1    1
    14     1     2   ar
    15     2     3   ar
    16     3     4   ar
    17     4    20    1
    18    20    21    1
    19    21    22    1
    20    22    23    1
    21    23    24    1
    22    24    27    1
    23    27    28    1
    24    28    29    1
    25    29    30    1
    26    24    25    1
    27    25    26    1
    28     4     5   ar
    29     5     6   ar
    30    19     8   ar
    31     6     1   ar
    32    16    10   ar
    33    26    21    1
    34    30    27    1
@<TRIPOS>MOLECULE
*****
 30 34 0 0 0
SMALL
GASTEIGER

@<TRIPOS>ATOM
      1 C         140.4437  139.2663  163.9147 C.ar    1  UNL1        0.0681
      2 C         139.7119  139.9288  162.7854 C.ar    1  UNL1        0.0208
      3 C         140.0171  139.5467  161.3673 C.ar    1  UNL1        0.0384
      4 C         141.0540  138.5021  161.0787 C.ar    1  UNL1        0.1385
      5 C         141.7858  137.8395  162.2081 C.ar    1  UNL1        0.0384
      6 C         141.4807  138.2216  163.6261 C.ar    1  UNL1        0.0208
      7 C         138.5393  137.6111  165.5376 C.3     1  UNL1        0.0723
      8 C         139.1863  138.8208  166.1442 C.ar    1  UNL1        0.1268
      9 N         138.8811  139.2029  167.5623 N.ar    1  UNL1       -0.2296
     10 C         139.5281  140.4127  168.1689 C.ar    1  UNL1        0.1145
     11 C         139.2229  140.7948  169.5869 C.ar    1  UNL1        0.1578
     12 F         138.2707  139.9672  170.3983 F       1  UNL1       -0.2026
     13 C         139.8699  142.0045  170.1935 C.ar    1  UNL1        0.0312
     14 C         140.8221  142.8321  169.3821 C.ar    1  UNL1        0.0026
     15 C         141.1273  142.4500  167.9641 C.ar    1  UNL1        0.0064
     16 C         140.4803  141.2403  167.3575 C.ar    1  UNL1        0.0764
     17 C         140.7855  140.8581  165.9394 C.ar    1  UNL1        0.2670
     18 O         141.7377  141.6857  165.1280 O.2     1  UNL1       -0.2665
     19 N         140.1385  139.6484  165.3328 N.ar    1  UNL1       -0.2626
     20 O         141.3592  138.1199  159.6606 O.3     1  UNL1       -0.4791
     21 C         142.4079  138.8674  158.8915 C.3     1  UNL1        0.1687
     22 C         142.6259  138.5706  157.4374 C.3     1  UNL1        0.0609
     23 C         143.6746  139.3181  156.6683 C.3     1  UNL1        0.0758
     24 N         144.5053  140.3624  157.3534 N.3     1  UNL1       -0.2737
     25 C         144.2874  140.6592  158.8075 C.3     1  UNL1        0.0758
     26 C         143.2387  139.9117  159.5765 C.3     1  UNL1        0.0609
     27 C         145.5540  141.1099  156.5844 C.3     1  UNL1        0.0575
     28 C         146.1671  140.9765  155.2218 C.3     1  UNL1        0.0160
     29 C         147.0371  142.1670  155.4967 C.3     1  UNL1        0.0028
     30 C         146.4241  142.3004  156.8592 C.3     1  UNL1        0.0160
@<TRIPOS>BOND
     1     7     8    1
     2     8     9   ar
     3     9    10   ar
     4    10    11   ar
     5    11    12    1
     6    11    13   ar
     7    13    14   ar
     8    14    15   ar
     9    15    16   ar
    10    16    17   ar
    11    17    18    2
    12    17    19   ar
    13    19     1    1
    14     1     2   ar
    15     2     3   ar
    16     3     4   ar
    17     4    20    1
    18    20    21    1
    19    21    22    1
    20    22    23    1
    21    23    24    1
    22    24    27    1
    23    27    28    1
    24    28    29    1
    25    29    30    1
    26    24    25    1
    27    25    26    1
    28     4     5   ar
    29     5     6   ar
    30    19     8   ar
    31     6     1   ar
    32    16    10   ar
    33    26    21    1
    34    30    27    1
@<TRIPOS>MOLECULE
*****
 30 34 0 0 0
SMALL
GASTEIGER

@<TRIPOS>ATOM
      1 C         140.2236  138.9575  160.3185 C.ar    1  UNL1        0.0681
      2 C         139.3334  138.0781  161.1456 C.ar    1  UNL1        0.0208
      3 C         138.6203  138.6426  162.3385 C.ar    1  UNL1        0.0384
      4 C         138.7975  140.0865  162.7041 C.ar    1  UNL1        0.1385
      5 C         139.6878  140.9659  161.8769 C.ar    1  UNL1        0.0384
      6 C         140.4008  140.4014  160.6841 C.ar    1  UNL1        0.0208
      7 C         142.9841  137.8221  160.6198 C.3     1  UNL1        0.0723
      8 C         142.3169  137.8252  159.2763 C.ar    1  UNL1        0.1268
      9 N         143.0300  137.2606  158.0835 N.ar    1  UNL1       -0.2296
     10 C         142.3628  137.2637  156.7400 C.ar    1  UNL1        0.1145
     11 C         143.0758  136.6992  155.5472 C.ar    1  UNL1        0.1578
     12 F         144.4561  136.1315  155.6978 F       1  UNL1       -0.2026
     13 C         142.4087  136.7023  154.2038 C.ar    1  UNL1        0.0312
     14 C         141.0285  137.2700  154.0531 C.ar    1  UNL1        0.0026
     15 C         140.3154  137.8346  155.2459 C.ar    1  UNL1        0.0064
     16 C         140.9826  137.8315  156.5893 C.ar    1  UNL1        0.0764
     17 C         140.2695  138.3960  157.7822 C.ar    1  UNL1        0.2670
     18 O         138.8893  138.9638  157.6315 O.2     1  UNL1       -0.2665
     19 N         140.9367  138.3929  159.1256 N.ar    1  UNL1       -0.2626
     20 O         138.0845  140.6511  163.8970 O.3     1  UNL1       -0.4791
     21 C         138.8689  141.1288  165.0829 C.3     1  UNL1        0.1687
     22 C         139.1822  140.1838  166.2049 C.3     1  UNL1        0.0609
     23 C         139.9667  140.6614  167.3909 C.3     1  UNL1        0.0758
     24 N         140.4378  142.0841  167.4548 N.3     1  UNL1       -0.2737
     25 C         140.1246  143.0290  166.3328 C.3     1  UNL1        0.0758
     26 C         139.3401  142.5514  165.1469 C.3     1  UNL1        0.0609
     27 C         141.2223  142.5618  168.6408 C.3     1  UNL1        0.0575
     28 C         140.9257  143.4260  169.8304 C.3     1  UNL1        0.0160
     29 C         142.3317  143.2373  170.3179 C.3     1  UNL1        0.0028
     30 C         142.6282  142.3731  169.1284 C.3     1  UNL1        0.0160
@<TRIPOS>BOND
     1     7     8    1
     2     8     9   ar
     3     9    10   ar
     4    10    11   ar
     5    11    12    1
     6    11    13   ar
     7    13    14   ar
     8    14    15   ar
     9    15    16   ar
    10    16    17   ar
    11    17    18    2
    12    17    19   ar
    13    19     1    1
    14     1     2   ar
    15     2     3   ar
    16     3     4   ar
    17     4    20    1
    18    20    21    1
    19    21    22    1
    20    22    23    1
    21    23    24    1
    22    24    27    1
    23    27    28    1
    24    28    29    1
    25    29    30    1
    26    24    25    1
    27    25    26    1
    28     4     5   ar
    29     5     6   ar
    30    19     8   ar
    31     6     1   ar
    32    16    10   ar
    33    26    21    1
    34    30    27    1
@<TRIPOS>MOLECULE
*****
 30 34 0 0 0
SMALL
GASTEIGER

@<TRIPOS>ATOM
      1 C         141.3361  138.8721  161.6576 C.ar    1  UNL1        0.0681
      2 C         141.0909  139.9179  160.6106 C.ar    1  UNL1        0.0208
      3 C         141.7523  139.8056  159.2691 C.ar    1  UNL1        0.0384
      4 C         142.6589  138.6475  158.9744 C.ar    1  UNL1        0.1385
      5 C         142.9040  137.6017  160.0214 C.ar    1  UNL1        0.0384
      6 C         142.2426  137.7140  161.3630 C.ar    1  UNL1        0.0208
      7 C         138.5206  137.9045  162.0276 C.3     1  UNL1        0.0723
      8 C         139.2669  138.5006  163.1842 C.ar    1  UNL1        0.1268
      9 N         138.6054  138.6129  164.5258 N.ar    1  UNL1       -0.2296
     10 C         139.3517  139.2090  165.6825 C.ar    1  UNL1        0.1145
     11 C         138.6902  139.3213  167.0240 C.ar    1  UNL1        0.1578
     12 F         137.2825  138.8375  167.2090 F       1  UNL1       -0.2026
     13 C         139.4365  139.9173  168.1806 C.ar    1  UNL1        0.0312
     14 C         140.8443  140.4011  167.9956 C.ar    1  UNL1        0.0026
     15 C         141.5057  140.2888  166.6541 C.ar    1  UNL1        0.0064
     16 C         140.7594  139.6928  165.4975 C.ar    1  UNL1        0.0764
     17 C         141.4209  139.5804  164.1558 C.ar    1  UNL1        0.2670
     18 O         142.8286  140.0642  163.9709 O.2     1  UNL1       -0.2665
     19 N         140.6746  138.9844  162.9992 N.ar    1  UNL1       -0.2626
     20 O         143.3203  138.5352  157.6328 O.3     1  UNL1       -0.4791
     21 C         142.9277  137.4341  156.6929 C.3     1  UNL1        0.1687
     22 C         141.4839  137.0568  156.5410 C.3     1  UNL1        0.0609
     23 C         141.0913  135.9557  155.6011 C.3     1  UNL1        0.0758
     24 N         142.1426  135.2318  154.8131 N.3     1  UNL1       -0.2737
     25 C         143.5863  135.6091  154.9651 C.3     1  UNL1        0.0758
     26 C         143.9789  136.7102  155.9049 C.3     1  UNL1        0.0609
     27 C         141.7500  134.1307  153.8732 C.3     1  UNL1        0.0575
     28 C         141.3053  132.7071  154.0340 C.3     1  UNL1        0.0160
     29 C         141.1948  132.5735  152.5440 C.3     1  UNL1        0.0028
     30 C         141.6394  133.9969  152.3833 C.3     1  UNL1        0.0160
@<TRIPOS>BOND
     1     7     8    1
     2     8     9   ar
     3     9    10   ar
     4    10    11   ar
     5    11    12    1
     6    11    13   ar
     7    13    14   ar
     8    14    15   ar
     9    15    16   ar
    10    16    17   ar
    11    17    18    2
    12    17    19   ar
    13    19     1    1
    14     1     2   ar
    15     2     3   ar
    16     3     4   ar
    17     4    20    1
    18    20    21    1
    19    21    22    1
    20    22    23    1
    21    23    24    1
    22    24    27    1
    23    27    28    1
    24    28    29    1
    25    29    30    1
    26    24    25    1
    27    25    26    1
    28     4     5   ar
    29     5     6   ar
    30    19     8   ar
    31     6     1   ar
    32    16    10   ar
    33    26    21    1
    34    30    27    1
@<TRIPOS>MOLECULE
*****
 30 34 0 0 0
SMALL
GASTEIGER

@<TRIPOS>ATOM
      1 C         140.8137  140.0487  163.0616 C.ar    1  UNL1        0.0681
      2 C         140.6577  138.7726  162.2888 C.ar    1  UNL1        0.0208
      3 C         140.8506  138.7683  160.8013 C.ar    1  UNL1        0.0384
      4 C         141.1993  140.0401  160.0866 C.ar    1  UNL1        0.1385
      5 C         141.3553  141.3162  160.8594 C.ar    1  UNL1        0.0384
      6 C         141.1624  141.3205  162.3469 C.ar    1  UNL1        0.0208
      7 C         138.1324  140.7256  164.2245 C.3     1  UNL1        0.0723
      8 C         139.2801  140.3914  165.1307 C.ar    1  UNL1        0.1268
      9 N         139.0872  140.3957  166.6182 N.ar    1  UNL1       -0.2296
     10 C         140.2350  140.0615  167.5243 C.ar    1  UNL1        0.1145
     11 C         140.0421  140.0658  169.0118 C.ar    1  UNL1        0.1578
     12 F         138.7015  140.4042  169.5933 F       1  UNL1       -0.2026
     13 C         141.1899  139.7316  169.9178 C.ar    1  UNL1        0.0312
     14 C         142.5305  139.3931  169.3364 C.ar    1  UNL1        0.0026
     15 C         142.7234  139.3889  167.8489 C.ar    1  UNL1        0.0064
     16 C         141.5757  139.7230  166.9428 C.ar    1  UNL1        0.0764
     17 C         141.7685  139.7188  165.4552 C.ar    1  UNL1        0.2670
     18 O         143.1092  139.3803  164.8738 O.2     1  UNL1       -0.2665
     19 N         140.6208  140.0529  164.5492 N.ar    1  UNL1       -0.2626
     20 O         141.3922  140.0358  158.5990 O.3     1  UNL1       -0.4791
     21 C         141.4870  138.7346  157.8587 C.3     1  UNL1        0.1687
     22 C         140.3525  138.2831  156.9874 C.3     1  UNL1        0.0609
     23 C         140.4472  136.9819  156.2472 C.3     1  UNL1        0.0758
     24 N         141.6765  136.1323  156.3783 N.3     1  UNL1       -0.2737
     25 C         142.8109  136.5838  157.2495 C.3     1  UNL1        0.0758
     26 C         142.7161  137.8850  157.9898 C.3     1  UNL1        0.0609
     27 C         141.7713  134.8311  155.6380 C.3     1  UNL1        0.0575
     28 C         141.3951  134.3629  154.2634 C.3     1  UNL1        0.0160
     29 C         141.9053  132.9910  154.5912 C.3     1  UNL1        0.0028
     30 C         142.2814  133.4591  155.9656 C.3     1  UNL1        0.0160
@<TRIPOS>BOND
     1     7     8    1
     2     8     9   ar
     3     9    10   ar
     4    10    11   ar
     5    11    12    1
     6    11    13   ar
     7    13    14   ar
     8    14    15   ar
     9    15    16   ar
    10    16    17   ar
    11    17    18    2
    12    17    19   ar
    13    19     1    1
    14     1     2   ar
    15     2     3   ar
    16     3     4   ar
    17     4    20    1
    18    20    21    1
    19    21    22    1
    20    22    23    1
    21    23    24    1
    22    24    27    1
    23    27    28    1
    24    28    29    1
    25    29    30    1
    26    24    25    1
    27    25    26    1
    28     4     5   ar
    29     5     6   ar
    30    19     8   ar
    31     6     1   ar
    32    16    10   ar
    33    26    21    1
    34    30    27    1
@<TRIPOS>MOLECULE
*****
 30 34 0 0 0
SMALL
GASTEIGER

@<TRIPOS>ATOM
      1 C         139.8731  139.4769  164.7665 C.ar    1  UNL1        0.0681
      2 C         140.1960  138.0929  164.2866 C.ar    1  UNL1        0.0208
      3 C         139.9027  137.7035  162.8681 C.ar    1  UNL1        0.0384
      4 C         139.2866  138.6981  161.9294 C.ar    1  UNL1        0.1385
      5 C         138.9637  140.0821  162.4094 C.ar    1  UNL1        0.0384
      6 C         139.2569  140.4715  163.8279 C.ar    1  UNL1        0.0208
      7 C         137.9443  138.7574  166.9488 C.3     1  UNL1        0.0723
      8 C         139.2020  139.5065  167.2763 C.ar    1  UNL1        0.1268
      9 N         139.4952  139.8958  168.6949 N.ar    1  UNL1       -0.2296
     10 C         140.7529  140.6449  169.0224 C.ar    1  UNL1        0.1145
     11 C         141.0461  141.0342  170.4410 C.ar    1  UNL1        0.1578
     12 F         140.0817  140.6745  171.5321 F       1  UNL1       -0.2026
     13 C         142.3037  141.7832  170.7684 C.ar    1  UNL1        0.0312
     14 C         143.2681  142.1429  169.6773 C.ar    1  UNL1        0.0026
     15 C         142.9749  141.7536  168.2587 C.ar    1  UNL1        0.0064
     16 C         141.7173  141.0046  167.9313 C.ar    1  UNL1        0.0764
     17 C         141.4240  140.6153  166.5126 C.ar    1  UNL1        0.2670
     18 O         142.3884  140.9750  165.4215 O.2     1  UNL1       -0.2665
     19 N         140.1664  139.8662  166.1852 N.ar    1  UNL1       -0.2626
     20 O         138.9933  138.3088  160.5108 O.3     1  UNL1       -0.4791
     21 C         140.0750  138.3815  159.4742 C.3     1  UNL1        0.1687
     22 C         141.5155  138.3878  159.8926 C.3     1  UNL1        0.0609
     23 C         142.5973  138.4605  158.8560 C.3     1  UNL1        0.0758
     24 N         142.2385  138.5270  157.4010 N.3     1  UNL1       -0.2737
     25 C         140.7981  138.5207  156.9826 C.3     1  UNL1        0.0758
     26 C         139.7163  138.4480  158.0192 C.3     1  UNL1        0.0609
     27 C         143.3202  138.5997  156.3644 C.3     1  UNL1        0.0575
     28 C         144.1560  139.6991  155.7788 C.3     1  UNL1        0.0160
     29 C         144.8500  138.7025  154.8984 C.3     1  UNL1        0.0028
     30 C         144.0143  137.6032  155.4839 C.3     1  UNL1        0.0160
@<TRIPOS>BOND
     1     7     8    1
     2     8     9   ar
     3     9    10   ar
     4    10    11   ar
     5    11    12    1
     6    11    13   ar
     7    13    14   ar
     8    14    15   ar
     9    15    16   ar
    10    16    17   ar
    11    17    18    2
    12    17    19   ar
    13    19     1    1
    14     1     2   ar
    15     2     3   ar
    16     3     4   ar
    17     4    20    1
    18    20    21    1
    19    21    22    1
    20    22    23    1
    21    23    24    1
    22    24    27    1
    23    27    28    1
    24    28    29    1
    25    29    30    1
    26    24    25    1
    27    25    26    1
    28     4     5   ar
    29     5     6   ar
    30    19     8   ar
    31     6     1   ar
    32    16    10   ar
    33    26    21    1
    34    30    27    1
@<TRIPOS>MOLECULE
*****
 30 34 0 0 0
SMALL
GASTEIGER

@<TRIPOS>ATOM
      1 C         141.7760  138.9798  161.4519 C.ar    1  UNL1        0.0681
      2 C         141.3146  139.8293  160.3049 C.ar    1  UNL1        0.0208
      3 C         141.7782  139.5239  158.9115 C.ar    1  UNL1        0.0384
      4 C         142.7032  138.3691  158.6650 C.ar    1  UNL1        0.1385
      5 C         143.1646  137.5196  159.8119 C.ar    1  UNL1        0.0384
      6 C         142.7010  137.8250  161.2054 C.ar    1  UNL1        0.0208
      7 C         143.2401  141.0069  163.1094 C.3     1  UNL1        0.0723
      8 C         142.0444  140.2987  163.6742 C.ar    1  UNL1        0.1268
      9 N         141.5808  140.6041  165.0676 N.ar    1  UNL1       -0.2296
     10 C         140.3852  139.8960  165.6324 C.ar    1  UNL1        0.1145
     11 C         139.9216  140.2014  167.0259 C.ar    1  UNL1        0.1578
     12 F         140.6536  141.2149  167.8546 F       1  UNL1       -0.2026
     13 C         138.7260  139.4932  167.5906 C.ar    1  UNL1        0.0312
     14 C         137.9940  138.4796  166.7619 C.ar    1  UNL1        0.0026
     15 C         138.4575  138.1742  165.3684 C.ar    1  UNL1        0.0064
     16 C         139.6531  138.8824  164.8037 C.ar    1  UNL1        0.0764
     17 C         140.1168  138.5770  163.4102 C.ar    1  UNL1        0.2670
     18 O         139.3848  137.5634  162.5814 O.2     1  UNL1       -0.2665
     19 N         141.3124  139.2852  162.8454 N.ar    1  UNL1       -0.2626
     20 O         143.1668  138.0637  157.2714 O.3     1  UNL1       -0.4791
     21 C         142.8202  136.7495  156.6368 C.3     1  UNL1        0.1687
     22 C         141.4730  136.5529  156.0071 C.3     1  UNL1        0.0609
     23 C         141.1264  135.2387  155.3725 C.3     1  UNL1        0.0758
     24 N         142.1270  134.1212  155.3675 N.3     1  UNL1       -0.2737
     25 C         143.4741  134.3178  155.9972 C.3     1  UNL1        0.0758
     26 C         143.8207  135.6320  156.6318 C.3     1  UNL1        0.0609
     27 C         141.7804  132.8070  154.7329 C.3     1  UNL1        0.0575
     28 C         140.7360  131.7568  154.9709 C.3     1  UNL1        0.0160
     29 C         141.2902  130.9484  153.8354 C.3     1  UNL1        0.0028
     30 C         142.3344  131.9985  153.5975 C.3     1  UNL1        0.0160
@<TRIPOS>BOND
     1     7     8    1
     2     8     9   ar
     3     9    10   ar
     4    10    11   ar
     5    11    12    1
     6    11    13   ar
     7    13    14   ar
     8    14    15   ar
     9    15    16   ar
    10    16    17   ar
    11    17    18    2
    12    17    19   ar
    13    19     1    1
    14     1     2   ar
    15     2     3   ar
    16     3     4   ar
    17     4    20    1
    18    20    21    1
    19    21    22    1
    20    22    23    1
    21    23    24    1
    22    24    27    1
    23    27    28    1
    24    28    29    1
    25    29    30    1
    26    24    25    1
    27    25    26    1
    28     4     5   ar
    29     5     6   ar
    30    19     8   ar
    31     6     1   ar
    32    16    10   ar
    33    26    21    1
    34    30    27    1
@<TRIPOS>MOLECULE
*****
 30 34 0 0 0
SMALL
GASTEIGER

@<TRIPOS>ATOM
      1 C         142.7773  141.8891  163.8894 C.ar    1  UNL1        0.0681
      2 C         141.9446  141.4335  162.7278 C.ar    1  UNL1        0.0208
      3 C         142.2010  141.9881  161.3580 C.ar    1  UNL1        0.0384
      4 C         143.2900  142.9984  161.1496 C.ar    1  UNL1        0.1385
      5 C         144.1226  143.4540  162.3111 C.ar    1  UNL1        0.0384
      6 C         143.8662  142.8994  163.6810 C.ar    1  UNL1        0.0208
      7 C         144.1663  139.3826  164.7769 C.3     1  UNL1        0.0723
      8 C         143.2154  140.0812  165.7031 C.ar    1  UNL1        0.1268
      9 N         142.9590  139.5265  167.0729 N.ar    1  UNL1       -0.2296
     10 C         142.0081  140.2251  167.9991 C.ar    1  UNL1        0.1145
     11 C         141.7517  139.6704  169.3690 C.ar    1  UNL1        0.1578
     12 F         142.4462  138.4172  169.8127 F       1  UNL1       -0.2026
     13 C         140.8008  140.3690  170.2951 C.ar    1  UNL1        0.0312
     14 C         140.1063  141.6223  169.8513 C.ar    1  UNL1        0.0026
     15 C         140.3626  142.1770  168.4814 C.ar    1  UNL1        0.0064
     16 C         141.3135  141.4784  167.5553 C.ar    1  UNL1        0.0764
     17 C         141.5699  142.0331  166.1854 C.ar    1  UNL1        0.2670
     18 O         140.8754  143.2863  165.7416 O.2     1  UNL1       -0.2665
     19 N         142.5208  141.3345  165.2593 N.ar    1  UNL1       -0.2626
     20 O         143.5464  143.5531  159.7797 O.3     1  UNL1       -0.4791
     21 C         142.3997  143.8062  158.8463 C.3     1  UNL1        0.1687
     22 C         141.4355  144.9203  159.1278 C.3     1  UNL1        0.0609
     23 C         140.2888  145.1734  158.1945 C.3     1  UNL1        0.0758
     24 N         140.1064  144.3125  156.9797 N.3     1  UNL1       -0.2737
     25 C         141.0707  143.1985  156.6983 C.3     1  UNL1        0.0758
     26 C         142.2173  142.9454  157.6316 C.3     1  UNL1        0.0609
     27 C         138.9598  144.5657  156.0464 C.3     1  UNL1        0.0575
     28 C         138.4712  145.7476  155.2625 C.3     1  UNL1        0.0160
     29 C         137.3382  144.9237  154.7264 C.3     1  UNL1        0.0028
     30 C         137.8267  143.7418  155.5102 C.3     1  UNL1        0.0160
@<TRIPOS>BOND
     1     7     8    1
     2     8     9   ar
     3     9    10   ar
     4    10    11   ar
     5    11    12    1
     6    11    13   ar
     7    13    14   ar
     8    14    15   ar
     9    15    16   ar
    10    16    17   ar
    11    17    18    2
    12    17    19   ar
    13    19     1    1
    14     1     2   ar
    15     2     3   ar
    16     3     4   ar
    17     4    20    1
    18    20    21    1
    19    21    22    1
    20    22    23    1
    21    23    24    1
    22    24    27    1
    23    27    28    1
    24    28    29    1
    25    29    30    1
    26    24    25    1
    27    25    26    1
    28     4     5   ar
    29     5     6   ar
    30    19     8   ar
    31     6     1   ar
    32    16    10   ar
    33    26    21    1
    34    30    27    1
@<TRIPOS>MOLECULE
*****
 30 34 0 0 0
SMALL
GASTEIGER

@<TRIPOS>ATOM
      1 C         139.0834  140.0471  164.8010 C.ar    1  UNL1        0.0681
      2 C         138.1078  141.0128  164.1964 C.ar    1  UNL1        0.0208
      3 C         137.6194  140.8059  162.7933 C.ar    1  UNL1        0.0384
      4 C         138.1066  139.6333  161.9949 C.ar    1  UNL1        0.1385
      5 C         139.0823  138.6676  162.5995 C.ar    1  UNL1        0.0384
      6 C         139.5706  138.8745  164.0026 C.ar    1  UNL1        0.0208
      7 C         137.7121  138.6679  167.0852 C.3     1  UNL1        0.0723
      8 C         138.8861  139.5645  167.3463 C.ar    1  UNL1        0.1268
      9 N         139.3744  139.7714  168.7494 N.ar    1  UNL1       -0.2296
     10 C         140.5484  140.6679  169.0104 C.ar    1  UNL1        0.1145
     11 C         141.0367  140.8749  170.4135 C.ar    1  UNL1        0.1578
     12 F         140.3511  140.1853  171.5556 F       1  UNL1       -0.2026
     13 C         142.2106  141.7714  170.6745 C.ar    1  UNL1        0.0312
     14 C         142.8963  142.4609  169.5324 C.ar    1  UNL1        0.0026
     15 C         142.4079  142.2540  168.1293 C.ar    1  UNL1        0.0064
     16 C         141.2340  141.3575  167.8683 C.ar    1  UNL1        0.0764
     17 C         140.7457  141.1506  166.4651 C.ar    1  UNL1        0.2670
     18 O         141.4313  141.8401  165.3230 O.2     1  UNL1       -0.2665
     19 N         139.5717  140.2541  166.2042 N.ar    1  UNL1       -0.2626
     20 O         137.6183  139.4263  160.5918 O.3     1  UNL1       -0.4791
     21 C         138.4454  139.8977  159.4326 C.3     1  UNL1        0.1687
     22 C         138.2906  141.2996  158.9217 C.3     1  UNL1        0.0609
     23 C         139.1177  141.7710  157.7625 C.3     1  UNL1        0.0758
     24 N         140.0996  140.8405  157.1142 N.3     1  UNL1       -0.2737
     25 C         140.2543  139.4387  157.6251 C.3     1  UNL1        0.0758
     26 C         139.4272  138.9673  158.7843 C.3     1  UNL1        0.0609
     27 C         140.9267  141.3119  155.9551 C.3     1  UNL1        0.0575
     28 C         142.1115  140.7736  155.2090 C.3     1  UNL1        0.0160
     29 C         142.0964  141.9785  154.3157 C.3     1  UNL1        0.0028
     30 C         140.9117  142.5167  155.0617 C.3     1  UNL1        0.0160
@<TRIPOS>BOND
     1     7     8    1
     2     8     9   ar
     3     9    10   ar
     4    10    11   ar
     5    11    12    1
     6    11    13   ar
     7    13    14   ar
     8    14    15   ar
     9    15    16   ar
    10    16    17   ar
    11    17    18    2
    12    17    19   ar
    13    19     1    1
    14     1     2   ar
    15     2     3   ar
    16     3     4   ar
    17     4    20    1
    18    20    21    1
    19    21    22    1
    20    22    23    1
    21    23    24    1
    22    24    27    1
    23    27    28    1
    24    28    29    1
    25    29    30    1
    26    24    25    1
    27    25    26    1
    28     4     5   ar
    29     5     6   ar
    30    19     8   ar
    31     6     1   ar
    32    16    10   ar
    33    26    21    1
    34    30    27    1
