@<TRIPOS>MOLECULE
*****
 39 44 0 0 0
SMALL
GASTEIGER

@<TRIPOS>ATOM
      1 C         142.6933  135.6787  157.3917 C.ar    1  UNL1        0.2400
      2 N         142.1676  135.2977  156.0395 N.ar    1  UNL1       -0.2090
      3 C         141.5103  136.3300  155.1723 C.ar    1  UNL1        0.1021
      4 C         141.2165  137.8328  155.3527 C.ar    1  UNL1        0.0221
      5 C         141.9120  137.2170  156.5305 C.ar    1  UNL1        0.0222
      6 C         142.5618  137.0921  157.8766 C.ar    1  UNL1        0.1178
      7 N         143.0875  137.4731  159.2288 N.pl3   1  UNL1       -0.2104
      8 S         143.4258  138.3141  160.4239 S.O2    1  UNL1        0.0737
      9 O         144.1000  138.0209  161.7314 O.2     1  UNL1       -0.1499
     10 O         143.8499  136.8822  160.5657 O.2     1  UNL1       -0.1499
     11 C         143.5358  139.5136  161.3179 C.ar    1  UNL1        0.1253
     12 C         144.1856  139.3887  162.6640 C.ar    1  UNL1        0.0202
     13 C         144.2956  140.5882  163.5579 C.ar    1  UNL1        0.0015
     14 C         143.7558  141.9126  163.1056 C.ar    1  UNL1        0.0046
     15 C         143.1060  142.0375  161.7595 C.ar    1  UNL1        0.0547
     16 C         142.9960  140.8380  160.8656 C.ar    1  UNL1        0.0247
     17 C         142.5073  143.7081  161.3678 C.2     1  UNL1        0.2461
     18 O         142.8456  144.5491  162.5629 O.2     1  UNL1       -0.2701
     19 N         141.8500  144.7404  160.5004 N.am    1  UNL1       -0.2969
     20 C         141.1545  145.3562  159.3227 C.3     1  UNL1        0.1181
     21 C         140.5047  145.4811  157.9765 C.ar    1  UNL1        0.0167
     22 C         139.8607  146.6582  157.2171 C.ar    1  UNL1        0.0962
     23 N         139.2109  146.7830  155.8708 N.ar    1  UNL1       -0.2425
     24 C         139.1009  145.5835  154.9770 C.ar    1  UNL1        0.1003
     25 C         139.6407  144.2591  155.4292 C.ar    1  UNL1        0.0366
     26 C         139.9790  145.1001  156.6243 C.ar    1  UNL1        0.0020
     27 C         139.5307  143.0596  154.5353 C.ar    1  UNL1        0.0860
     28 C         138.8405  143.8540  153.4664 C.ar    1  UNL1        0.1180
     29 N         138.5454  142.9316  152.3209 N.ar    1  UNL1       -0.2249
     30 C         139.0533  141.5672  152.6819 C.ar    1  UNL1        0.1478
     31 C         139.3592  139.7609  152.3623 C.ar    1  UNL1        0.0374
     32 C         139.9901  138.6290  153.1178 C.ar    1  UNL1        0.0046
     33 C         140.5593  138.8651  154.4854 C.ar    1  UNL1        0.0192
     34 C         140.0195  140.1895  154.0331 C.ar    1  UNL1        0.0814
     35 N         139.6623  141.6462  154.0505 N.ar    1  UNL1       -0.2887
     36 H         143.4418  136.6038  159.5256 H       1  UNL1        0.1739
     37 H         141.9222  145.5277  161.0871 H       1  UNL1        0.1501
     38 C         144.0993  133.5073  157.6330 C.3     1  UNL1        0.2543
     39 O         143.3506  134.6463  158.2590 O.3     1  UNL1       -0.4553
@<TRIPOS>BOND
     1    38    39    1
     2    39     1    1
     3     1     2   ar
     4     2     3   ar
     5     3     4   ar
     6     4     5   ar
     7     5     6   ar
     8     6     7    1
     9     7     8    1
    10     8     9    2
    11     8    10    2
    12     8    11    1
    13    11    12   ar
    14    12    13   ar
    15    13    14   ar
    16    14    15   ar
    17    15    16   ar
    18    15    17    1
    19    17    18    2
    20    17    19   am
    21    19    20    1
    22    20    21    1
    23    21    22   ar
    24    22    23   ar
    25    23    24   ar
    26    24    25   ar
    27    25    26   ar
    28    25    27    1
    29    27    28   ar
    30    28    29   ar
    31    29    30   ar
    32    30    31   ar
    33    31    32   ar
    34    32    33   ar
    35    33    34   ar
    36    34    35   ar
    37     6     1   ar
    38    16    11   ar
    39    26    21   ar
    40    35    27   ar
    41    33     4    1
    42    35    30   ar
    43     7    36    1
    44    19    37    1
@<TRIPOS>MOLECULE
*****
 39 44 0 0 0
SMALL
GASTEIGER

@<TRIPOS>ATOM
      1 C         140.1796  145.7147  155.0785 C.ar    1  UNL1        0.2400
      2 N         139.7884  146.8300  156.0022 N.ar    1  UNL1       -0.2090
      3 C         139.8291  146.6230  157.4872 C.ar    1  UNL1        0.1021
      4 C         140.2129  145.4253  158.3791 C.ar    1  UNL1        0.0221
      5 C         140.3372  145.1385  156.9120 C.ar    1  UNL1        0.0222
      6 C         140.6115  144.3925  155.6399 C.ar    1  UNL1        0.1178
      7 N         141.0026  143.2772  154.7162 N.pl3   1  UNL1       -0.2104
      8 S         141.4635  141.9272  154.2524 S.O2    1  UNL1        0.0737
      9 O         141.6906  141.3268  152.8967 O.2     1  UNL1       -0.1499
     10 O         141.1684  142.8735  153.1265 O.2     1  UNL1       -0.1499
     11 C         141.9386  140.5053  154.3043 C.ar    1  UNL1        0.1253
     12 C         142.2128  139.7593  153.0322 C.ar    1  UNL1        0.0202
     13 C         142.6878  138.3375  153.0842 C.ar    1  UNL1        0.0015
     14 C         142.8886  137.6617  154.4082 C.ar    1  UNL1        0.0046
     15 C         142.6144  138.4077  155.6802 C.ar    1  UNL1        0.0547
     16 C         142.1393  139.8295  155.6283 C.ar    1  UNL1        0.0247
     17 C         142.9078  137.4442  157.1929 C.2     1  UNL1        0.2461
     18 O         143.3687  136.0942  156.7291 O.2     1  UNL1       -0.2701
     19 N         142.9485  137.2373  158.6780 N.am    1  UNL1       -0.2969
     20 C         142.8242  137.5241  160.1451 C.3     1  UNL1        0.1181
     21 C         142.5500  138.2701  161.4172 C.ar    1  UNL1        0.0167
     22 C         142.6480  137.8916  162.9085 C.ar    1  UNL1        0.0962
     23 N         142.3737  138.6377  164.1807 N.ar    1  UNL1       -0.2425
     24 C         141.8987  140.0596  164.1287 C.ar    1  UNL1        0.1003
     25 C         141.6979  140.7354  162.8047 C.ar    1  UNL1        0.0366
     26 C         142.1588  139.3854  162.3409 C.ar    1  UNL1        0.0020
     27 C         141.2229  142.1572  162.7528 C.ar    1  UNL1        0.0860
     28 C         141.1639  142.2473  164.2489 C.ar    1  UNL1        0.1180
     29 N         140.6955  143.6253  164.6122 N.ar    1  UNL1       -0.2249
     30 C         140.4651  144.3867  163.3406 C.ar    1  UNL1        0.1478
     31 C         139.9807  145.8902  162.3590 C.ar    1  UNL1        0.0374
     32 C         139.8921  146.2385  160.9027 C.ar    1  UNL1        0.0046
     33 C         140.2536  145.2183  159.8641 C.ar    1  UNL1        0.0192
     34 C         140.4544  144.5425  161.1881 C.ar    1  UNL1        0.0814
     35 N         140.7910  143.4794  162.1913 N.ar    1  UNL1       -0.2887
     36 H         140.8708  143.7208  153.8473 H       1  UNL1        0.1739
     37 H         143.2603  136.3041  158.7121 H       1  UNL1        0.1501
     38 C         141.3227  146.5111  152.8855 C.3     1  UNL1        0.2543
     39 O         140.1389  145.9217  153.5934 O.3     1  UNL1       -0.4553
@<TRIPOS>BOND
     1    38    39    1
     2    39     1    1
     3     1     2   ar
     4     2     3   ar
     5     3     4   ar
     6     4     5   ar
     7     5     6   ar
     8     6     7    1
     9     7     8    1
    10     8     9    2
    11     8    10    2
    12     8    11    1
    13    11    12   ar
    14    12    13   ar
    15    13    14   ar
    16    14    15   ar
    17    15    16   ar
    18    15    17    1
    19    17    18    2
    20    17    19   am
    21    19    20    1
    22    20    21    1
    23    21    22   ar
    24    22    23   ar
    25    23    24   ar
    26    24    25   ar
    27    25    26   ar
    28    25    27    1
    29    27    28   ar
    30    28    29   ar
    31    29    30   ar
    32    30    31   ar
    33    31    32   ar
    34    32    33   ar
    35    33    34   ar
    36    34    35   ar
    37     6     1   ar
    38    16    11   ar
    39    26    21   ar
    40    35    27   ar
    41    33     4    1
    42    35    30   ar
    43     7    36    1
    44    19    37    1
@<TRIPOS>MOLECULE
*****
 39 44 0 0 0
SMALL
GASTEIGER

@<TRIPOS>ATOM
      1 C         139.0678  146.1216  156.5702 C.ar    1  UNL1        0.2400
      2 N         138.2306  146.1191  155.3256 N.ar    1  UNL1       -0.2090
      3 C         138.0632  144.8543  154.5368 C.ar    1  UNL1        0.1021
      4 C         138.5953  143.4181  154.7137 C.ar    1  UNL1        0.0221
      5 C         139.0502  144.3579  155.7907 C.ar    1  UNL1        0.0222
      6 C         139.7377  144.8592  157.0260 C.ar    1  UNL1        0.1178
      7 N         140.5750  144.8617  158.2705 N.pl3   1  UNL1       -0.2104
      8 S         141.4610  144.3650  159.3743 S.O2    1  UNL1        0.0737
      9 O         142.0790  145.0220  160.5727 O.2     1  UNL1       -0.1499
     10 O         141.1227  145.8215  159.4939 O.2     1  UNL1       -0.1499
     11 C         142.2889  143.4290  160.2041 C.ar    1  UNL1        0.1253
     12 C         142.9764  143.9304  161.4394 C.ar    1  UNL1        0.0202
     13 C         143.8043  142.9944  162.2691 C.ar    1  UNL1        0.0015
     14 C         143.9446  141.5571  161.8637 C.ar    1  UNL1        0.0046
     15 C         143.2570  141.0557  160.6284 C.ar    1  UNL1        0.0547
     16 C         142.4292  141.9917  159.7987 C.ar    1  UNL1        0.0247
     17 C         143.5302  139.2929  160.2812 C.2     1  UNL1        0.2461
     18 O         144.4162  138.7961  161.3849 O.2     1  UNL1       -0.2701
     19 N         143.3627  138.0281  159.4924 N.am    1  UNL1       -0.2969
     20 C         142.9078  137.0883  158.4154 C.3     1  UNL1        0.1181
     21 C         142.2202  136.5869  157.1801 C.ar    1  UNL1        0.0167
     22 C         142.1527  135.2092  156.4914 C.ar    1  UNL1        0.0962
     23 N         141.4651  134.7079  155.2561 N.ar    1  UNL1       -0.2425
     24 C         140.6373  135.6438  154.4263 C.ar    1  UNL1        0.1003
     25 C         140.4970  137.0812  154.8318 C.ar    1  UNL1        0.0366
     26 C         141.3830  136.5844  155.9355 C.ar    1  UNL1        0.0020
     27 C         139.6691  138.0171  154.0020 C.ar    1  UNL1        0.0860
     28 C         139.3245  136.9312  153.0263 C.ar    1  UNL1        0.1180
     29 N         138.4415  137.5224  151.9675 N.ar    1  UNL1       -0.2249
     30 C         138.2406  138.9737  152.2888 C.ar    1  UNL1        0.1478
     31 C         137.5458  140.6712  151.9819 C.ar    1  UNL1        0.0374
     32 C         137.6242  142.0031  152.6673 C.ar    1  UNL1        0.0046
     33 C         138.4279  142.1533  153.9249 C.ar    1  UNL1        0.0192
     34 C         138.5682  140.7160  153.5195 C.ar    1  UNL1        0.0814
     35 N         138.9992  139.2795  153.5462 N.ar    1  UNL1       -0.2887
     36 H         140.4829  145.8051  158.5366 H       1  UNL1        0.1739
     37 H         143.9061  137.4138  160.0370 H       1  UNL1        0.1501
     38 C         138.5465  148.6432  156.9162 C.3     1  UNL1        0.2543
     39 O         139.2352  147.3864  157.3589 O.3     1  UNL1       -0.4553
@<TRIPOS>BOND
     1    38    39    1
     2    39     1    1
     3     1     2   ar
     4     2     3   ar
     5     3     4   ar
     6     4     5   ar
     7     5     6   ar
     8     6     7    1
     9     7     8    1
    10     8     9    2
    11     8    10    2
    12     8    11    1
    13    11    12   ar
    14    12    13   ar
    15    13    14   ar
    16    14    15   ar
    17    15    16   ar
    18    15    17    1
    19    17    18    2
    20    17    19   am
    21    19    20    1
    22    20    21    1
    23    21    22   ar
    24    22    23   ar
    25    23    24   ar
    26    24    25   ar
    27    25    26   ar
    28    25    27    1
    29    27    28   ar
    30    28    29   ar
    31    29    30   ar
    32    30    31   ar
    33    31    32   ar
    34    32    33   ar
    35    33    34   ar
    36    34    35   ar
    37     6     1   ar
    38    16    11   ar
    39    26    21   ar
    40    35    27   ar
    41    33     4    1
    42    35    30   ar
    43     7    36    1
    44    19    37    1
@<TRIPOS>MOLECULE
*****
 39 44 0 0 0
SMALL
GASTEIGER

@<TRIPOS>ATOM
      1 C         139.2453  147.0537  156.8498 C.ar    1  UNL1        0.2400
      2 N         139.1717  147.0258  155.3519 N.ar    1  UNL1       -0.2090
      3 C         139.5632  145.7855  154.6047 C.ar    1  UNL1        0.1021
      4 C         140.0719  144.3990  155.0476 C.ar    1  UNL1        0.0221
      5 C         139.8103  145.3307  156.1937 C.ar    1  UNL1        0.0222
      6 C         139.7103  145.8412  157.6006 C.ar    1  UNL1        0.1178
      7 N         139.7839  145.8691  159.0985 N.pl3   1  UNL1       -0.2104
      8 S         140.0222  145.4110  160.5068 S.O2    1  UNL1        0.0737
      9 O         139.8660  146.0714  161.8445 O.2     1  UNL1       -0.1499
     10 O         139.5242  146.8231  160.4176 O.2     1  UNL1       -0.1499
     11 C         140.3964  144.5221  161.6557 C.ar    1  UNL1        0.1253
     12 C         140.2964  145.0326  163.0625 C.ar    1  UNL1        0.0202
     13 C         140.6707  144.1437  164.2113 C.ar    1  UNL1        0.0015
     14 C         141.1449  142.7443  163.9532 C.ar    1  UNL1        0.0046
     15 C         141.2449  142.2337  162.5464 C.ar    1  UNL1        0.0547
     16 C         140.8707  143.1226  161.3976 C.ar    1  UNL1        0.0247
     17 C         141.8355  140.5204  162.4105 C.2     1  UNL1        0.2461
     18 O         142.0738  140.0622  163.8188 O.2     1  UNL1       -0.2701
     19 N         142.2270  139.2801  161.6633 N.am    1  UNL1       -0.2969
     20 C         142.4885  138.3484  160.5172 C.3     1  UNL1        0.1181
     21 C         142.5885  137.8378  159.1103 C.ar    1  UNL1        0.0167
     22 C         143.0251  136.4902  158.5017 C.ar    1  UNL1        0.0962
     23 N         143.1251  135.9797  157.0948 N.ar    1  UNL1       -0.2425
     24 C         142.7508  136.8686  155.9460 C.ar    1  UNL1        0.1003
     25 C         142.2766  138.2680  156.2041 C.ar    1  UNL1        0.0366
     26 C         142.5149  137.8099  157.6124 C.ar    1  UNL1        0.0020
     27 C         141.9024  139.1569  155.0553 C.ar    1  UNL1        0.0860
     28 C         142.2207  138.0859  154.0545 C.ar    1  UNL1        0.1180
     29 N         141.9523  138.6364  152.6852 N.ar    1  UNL1       -0.2249
     30 C         141.4682  140.0477  152.8397 C.ar    1  UNL1        0.1478
     31 C         140.8611  141.6843  152.1985 C.ar    1  UNL1        0.0374
     32 C         140.4402  142.9875  152.8103 C.ar    1  UNL1        0.0046
     33 C         140.4633  143.1587  154.3004 C.ar    1  UNL1        0.0192
     34 C         140.9376  141.7592  154.0424 C.ar    1  UNL1        0.0814
     35 N         141.4373  140.3694  154.3045 N.ar    1  UNL1       -0.2887
     36 H         139.4727  146.7877  159.2679 H       1  UNL1        0.1739
     37 H         142.4726  138.6966  162.4173 H       1  UNL1        0.1501
     38 C         138.4626  149.5311  156.8442 C.3     1  UNL1        0.2543
     39 O         138.8538  148.2940  157.5969 O.3     1  UNL1       -0.4553
@<TRIPOS>BOND
     1    38    39    1
     2    39     1    1
     3     1     2   ar
     4     2     3   ar
     5     3     4   ar
     6     4     5   ar
     7     5     6   ar
     8     6     7    1
     9     7     8    1
    10     8     9    2
    11     8    10    2
    12     8    11    1
    13    11    12   ar
    14    12    13   ar
    15    13    14   ar
    16    14    15   ar
    17    15    16   ar
    18    15    17    1
    19    17    18    2
    20    17    19   am
    21    19    20    1
    22    20    21    1
    23    21    22   ar
    24    22    23   ar
    25    23    24   ar
    26    24    25   ar
    27    25    26   ar
    28    25    27    1
    29    27    28   ar
    30    28    29   ar
    31    29    30   ar
    32    30    31   ar
    33    31    32   ar
    34    32    33   ar
    35    33    34   ar
    36    34    35   ar
    37     6     1   ar
    38    16    11   ar
    39    26    21   ar
    40    35    27   ar
    41    33     4    1
    42    35    30   ar
    43     7    36    1
    44    19    37    1
@<TRIPOS>MOLECULE
*****
 39 44 0 0 0
SMALL
GASTEIGER

@<TRIPOS>ATOM
      1 C         142.8204  137.2258  155.4785 C.ar    1  UNL1        0.2400
      2 N         143.0516  136.2318  156.5777 N.ar    1  UNL1       -0.2090
      3 C         142.8683  136.6404  158.0093 C.ar    1  UNL1        0.1021
      4 C         142.4603  137.9629  158.6888 C.ar    1  UNL1        0.0221
      5 C         142.5051  138.0522  157.1921 C.ar    1  UNL1        0.0222
      6 C         142.4059  138.6286  155.8108 C.ar    1  UNL1        0.1178
      7 N         142.1747  139.6227  154.7116 N.pl3   1  UNL1       -0.2104
      8 S         141.8394  140.9145  154.0269 S.O2    1  UNL1        0.0737
      9 O         141.7877  141.3335  152.5876 O.2     1  UNL1       -0.1499
     10 O         142.1974  139.8127  153.0742 O.2     1  UNL1       -0.1499
     11 C         141.4404  142.3483  153.8394 C.ar    1  UNL1        0.1253
     12 C         141.3412  142.9247  152.4582 C.ar    1  UNL1        0.0202
     13 C         140.9423  144.3585  152.2708 C.ar    1  UNL1        0.0015
     14 C         140.6425  145.2158  153.4646 C.ar    1  UNL1        0.0046
     15 C         140.7417  144.6394  154.8458 C.ar    1  UNL1        0.0547
     16 C         141.1406  143.2057  155.0332 C.ar    1  UNL1        0.0247
     17 C         140.3460  145.8110  156.1776 C.2     1  UNL1        0.2461
     18 O         140.0107  147.1028  155.4930 O.2     1  UNL1       -0.2701
     19 N         140.1627  146.2196  157.6092 N.am    1  UNL1       -0.2969
     20 C         140.1179  146.1304  159.1058 C.3     1  UNL1        0.1181
     21 C         140.2171  145.5539  160.4871 C.ar    1  UNL1        0.0167
     22 C         139.9857  146.1355  161.8960 C.ar    1  UNL1        0.0962
     23 N         140.0849  145.5590  163.2773 N.ar    1  UNL1       -0.2425
     24 C         140.4838  144.1253  163.4648 C.ar    1  UNL1        0.1003
     25 C         140.7836  143.2680  162.2710 C.ar    1  UNL1        0.0366
     26 C         140.4483  144.5598  161.5864 C.ar    1  UNL1        0.0020
     27 C         141.1826  141.8342  162.4584 C.ar    1  UNL1        0.0860
     28 C         141.0808  141.9463  163.9508 C.ar    1  UNL1        0.1180
     29 N         141.4324  140.6127  164.5408 N.ar    1  UNL1       -0.2249
     30 C         141.7515  139.6765  163.4131 C.ar    1  UNL1        0.1478
     31 C         142.2519  138.0351  162.6964 C.ar    1  UNL1        0.0374
     32 C         142.4720  137.4885  161.3170 C.ar    1  UNL1        0.0046
     33 C         142.2770  138.3716  160.1203 C.ar    1  UNL1        0.0192
     34 C         141.9772  139.2289  161.3141 C.ar    1  UNL1        0.0814
     35 N         141.5971  140.4314  162.1261 N.ar    1  UNL1       -0.2887
     36 H         142.3715  139.0600  153.9280 H       1  UNL1        0.1739
     37 H         139.9009  147.1606  157.4861 H       1  UNL1        0.1501
     38 C         141.8827  136.1478  153.3085 C.3     1  UNL1        0.2543
     39 O         143.0037  136.8172  154.0470 O.3     1  UNL1       -0.4553
@<TRIPOS>BOND
     1    38    39    1
     2    39     1    1
     3     1     2   ar
     4     2     3   ar
     5     3     4   ar
     6     4     5   ar
     7     5     6   ar
     8     6     7    1
     9     7     8    1
    10     8     9    2
    11     8    10    2
    12     8    11    1
    13    11    12   ar
    14    12    13   ar
    15    13    14   ar
    16    14    15   ar
    17    15    16   ar
    18    15    17    1
    19    17    18    2
    20    17    19   am
    21    19    20    1
    22    20    21    1
    23    21    22   ar
    24    22    23   ar
    25    23    24   ar
    26    24    25   ar
    27    25    26   ar
    28    25    27    1
    29    27    28   ar
    30    28    29   ar
    31    29    30   ar
    32    30    31   ar
    33    31    32   ar
    34    32    33   ar
    35    33    34   ar
    36    34    35   ar
    37     6     1   ar
    38    16    11   ar
    39    26    21   ar
    40    35    27   ar
    41    33     4    1
    42    35    30   ar
    43     7    36    1
    44    19    37    1
@<TRIPOS>MOLECULE
*****
 39 44 0 0 0
SMALL
GASTEIGER

@<TRIPOS>ATOM
      1 C         139.9125  145.3644  162.3729 C.ar    1  UNL1        0.2400
      2 N         139.5295  146.6340  161.6718 N.ar    1  UNL1       -0.2090
      3 C         139.6227  146.7230  160.1774 C.ar    1  UNL1        0.1021
      4 C         140.0593  145.7288  159.0828 C.ar    1  UNL1        0.0221
      5 C         140.1413  145.1613  160.4689 C.ar    1  UNL1        0.0222
      6 C         140.3887  144.1839  161.5795 C.ar    1  UNL1        0.1178
      7 N         140.7717  142.9143  162.2805 N.pl3   1  UNL1       -0.2104
      8 S         141.2441  141.5058  162.4875 S.O2    1  UNL1        0.0737
      9 O         141.4388  140.6540  163.7068 O.2     1  UNL1       -0.1499
     10 O         140.8936  142.2087  163.7655 O.2     1  UNL1       -0.1499
     11 C         141.7489  140.1281  162.1755 C.ar    1  UNL1        0.1253
     12 C         141.9963  139.1506  163.2861 C.ar    1  UNL1        0.0202
     13 C         142.5011  137.7730  162.9741 C.ar    1  UNL1        0.0015
     14 C         142.7584  137.3729  161.5515 C.ar    1  UNL1        0.0046
     15 C         142.5109  138.3503  160.4410 C.ar    1  UNL1        0.0547
     16 C         142.0062  139.7279  160.7530 C.ar    1  UNL1        0.0247
     17 C         142.8728  137.7063  158.7805 C.2     1  UNL1        0.2461
     18 O         143.3452  136.2977  158.9875 O.2     1  UNL1       -0.2701
     19 N         142.9660  137.7954  157.2861 N.am    1  UNL1       -0.2969
     20 C         142.8840  138.3628  155.9000 C.3     1  UNL1        0.1181
     21 C         142.6365  139.3403  154.7894 C.ar    1  UNL1        0.0167
     22 C         142.7907  139.2631  153.2573 C.ar    1  UNL1        0.0962
     23 N         142.5432  140.2407  152.1468 N.ar    1  UNL1       -0.2425
     24 C         142.0385  141.6183  152.4588 C.ar    1  UNL1        0.1003
     25 C         141.7812  142.0184  153.8814 C.ar    1  UNL1        0.0366
     26 C         142.2535  140.6099  154.0883 C.ar    1  UNL1        0.0020
     27 C         141.2764  143.3960  154.1934 C.ar    1  UNL1        0.0860
     28 C         141.2645  143.7772  152.7426 C.ar    1  UNL1        0.1180
     29 N         140.7808  145.1934  152.6394 N.ar    1  UNL1       -0.2249
     30 C         140.4939  145.6874  154.0263 C.ar    1  UNL1        0.1478
     31 C         139.9478  146.9625  155.2651 C.ar    1  UNL1        0.0374
     32 C         139.8048  147.0171  156.7572 C.ar    1  UNL1        0.0046
     33 C         140.1525  145.8178  157.5884 C.ar    1  UNL1        0.0192
     34 C         140.4098  145.4176  156.1659 C.ar    1  UNL1        0.0814
     35 N         140.8001  144.5766  154.9868 N.ar    1  UNL1       -0.2887
     36 H         140.6029  143.1769  163.2142 H       1  UNL1        0.1739
     37 H         143.2973  136.8912  157.0813 H       1  UNL1        0.1501
     38 C         138.5915  144.7006  164.5093 C.3     1  UNL1        0.2543
     39 O         139.8192  145.2754  163.8673 O.3     1  UNL1       -0.4553
@<TRIPOS>BOND
     1    38    39    1
     2    39     1    1
     3     1     2   ar
     4     2     3   ar
     5     3     4   ar
     6     4     5   ar
     7     5     6   ar
     8     6     7    1
     9     7     8    1
    10     8     9    2
    11     8    10    2
    12     8    11    1
    13    11    12   ar
    14    12    13   ar
    15    13    14   ar
    16    14    15   ar
    17    15    16   ar
    18    15    17    1
    19    17    18    2
    20    17    19   am
    21    19    20    1
    22    20    21    1
    23    21    22   ar
    24    22    23   ar
    25    23    24   ar
    26    24    25   ar
    27    25    26   ar
    28    25    27    1
    29    27    28   ar
    30    28    29   ar
    31    29    30   ar
    32    30    31   ar
    33    31    32   ar
    34    32    33   ar
    35    33    34   ar
    36    34    35   ar
    37     6     1   ar
    38    16    11   ar
    39    26    21   ar
    40    35    27   ar
    41    33     4    1
    42    35    30   ar
    43     7    36    1
    44    19    37    1
@<TRIPOS>MOLECULE
*****
 39 44 0 0 0
SMALL
GASTEIGER

@<TRIPOS>ATOM
      1 C         142.2001  139.2812  162.3894 C.ar    1  UNL1        0.2400
      2 N         141.8551  140.5135  163.1719 N.ar    1  UNL1       -0.2090
      3 C         141.4568  141.7697  162.4555 C.ar    1  UNL1        0.1021
      4 C         141.3014  142.1350  160.9657 C.ar    1  UNL1        0.0221
      5 C         141.7333  140.7159  161.1883 C.ar    1  UNL1        0.0222
      6 C         142.1467  139.3051  160.8905 C.ar    1  UNL1        0.1178
      7 N         142.4917  138.0728  160.1080 N.pl3   1  UNL1       -0.2104
      8 S         142.7267  137.1675  158.9352 S.O2    1  UNL1        0.0737
      9 O         143.1520  135.7346  158.8099 O.2     1  UNL1       -0.1499
     10 O         142.9670  136.5013  160.2575 O.2     1  UNL1       -0.1499
     11 C         142.8233  136.6986  157.5136 C.ar    1  UNL1        0.1253
     12 C         143.2367  135.2878  157.2158 C.ar    1  UNL1        0.0202
     13 C         143.3333  134.8189  155.7943 C.ar    1  UNL1        0.0015
     14 C         143.0166  135.7607  154.6706 C.ar    1  UNL1        0.0046
     15 C         142.6032  137.1715  154.9685 C.ar    1  UNL1        0.0547
     16 C         142.5066  137.6404  156.3900 C.ar    1  UNL1        0.0247
     17 C         142.2562  138.1782  153.4958 C.2     1  UNL1        0.2461
     18 O         142.4912  137.2730  152.3230 O.2     1  UNL1       -0.2701
     19 N         141.8579  139.4345  152.7795 N.am    1  UNL1       -0.2969
     20 C         141.4260  140.8536  152.5568 C.3     1  UNL1        0.1181
     21 C         141.0126  142.2644  152.8547 C.ar    1  UNL1        0.0167
     22 C         140.6259  143.4641  151.9669 C.ar    1  UNL1        0.0962
     23 N         140.2125  144.8749  152.2648 N.ar    1  UNL1       -0.2425
     24 C         140.1159  145.3438  153.6863 C.ar    1  UNL1        0.1003
     25 C         140.4326  144.4020  154.8100 C.ar    1  UNL1        0.0366
     26 C         140.6676  143.4968  153.6372 C.ar    1  UNL1        0.0020
     27 C         140.3360  144.8709  156.2315 C.ar    1  UNL1        0.0860
     28 C         139.9113  146.2448  155.8046 C.ar    1  UNL1        0.1180
     29 N         139.7022  147.0700  157.0397 N.ar    1  UNL1       -0.2249
     30 C         139.9977  146.2061  158.2298 C.ar    1  UNL1        0.1478
     31 C         140.1542  145.8712  160.0524 C.ar    1  UNL1        0.0374
     32 C         140.5334  144.6921  160.8984 C.ar    1  UNL1        0.0046
     33 C         140.9031  143.3912  160.2494 C.ar    1  UNL1        0.0192
     34 C         140.5863  144.3331  159.1257 C.ar    1  UNL1        0.0814
     35 N         140.3894  144.8470  157.7304 N.ar    1  UNL1       -0.2887
     36 H         142.6996  137.4546  160.8455 H       1  UNL1        0.1739
     37 H         141.9213  139.1267  151.8465 H       1  UNL1        0.1501
     38 C         141.5788  137.2530  163.8896 C.3     1  UNL1        0.2543
     39 O         142.5984  138.0250  163.1057 O.3     1  UNL1       -0.4553
@<TRIPOS>BOND
     1    38    39    1
     2    39     1    1
     3     1     2   ar
     4     2     3   ar
     5     3     4   ar
     6     4     5   ar
     7     5     6   ar
     8     6     7    1
     9     7     8    1
    10     8     9    2
    11     8    10    2
    12     8    11    1
    13    11    12   ar
    14    12    13   ar
    15    13    14   ar
    16    14    15   ar
    17    15    16   ar
    18    15    17    1
    19    17    18    2
    20    17    19   am
    21    19    20    1
    22    20    21    1
    23    21    22   ar
    24    22    23   ar
    25    23    24   ar
    26    24    25   ar
    27    25    26   ar
    28    25    27    1
    29    27    28   ar
    30    28    29   ar
    31    29    30   ar
    32    30    31   ar
    33    31    32   ar
    34    32    33   ar
    35    33    34   ar
    36    34    35   ar
    37     6     1   ar
    38    16    11   ar
    39    26    21   ar
    40    35    27   ar
    41    33     4    1
    42    35    30   ar
    43     7    36    1
    44    19    37    1
@<TRIPOS>MOLECULE
*****
 39 44 0 0 0
SMALL
GASTEIGER

@<TRIPOS>ATOM
      1 C         142.7468  143.4687  161.9513 C.ar    1  UNL1        0.2400
      2 N         143.4025  142.3635  162.7250 N.ar    1  UNL1       -0.2090
      3 C         143.4914  140.9866  162.1368 C.ar    1  UNL1        0.1021
      4 C         143.0268  140.3742  160.8003 C.ar    1  UNL1        0.0221
      5 C         142.7018  141.8328  160.9313 C.ar    1  UNL1        0.0222
      6 C         142.1800  143.1968  160.5893 C.ar    1  UNL1        0.1178
      7 N         141.5243  144.3020  159.8156 N.pl3   1  UNL1       -0.2104
      8 S         140.8138  145.0149  158.7034 S.O2    1  UNL1        0.0737
      9 O         140.3516  146.4297  158.5173 O.2     1  UNL1       -0.1499
     10 O         141.1273  145.9010  159.8724 O.2     1  UNL1       -0.1499
     11 C         140.1341  145.2496  157.3869 C.ar    1  UNL1        0.1253
     12 C         139.6123  146.6137  157.0450 C.ar    1  UNL1        0.0202
     13 C         138.9327  146.8484  155.7286 C.ar    1  UNL1        0.0015
     14 C         138.7749  145.7190  154.7541 C.ar    1  UNL1        0.0046
     15 C         139.2967  144.3549  155.0961 C.ar    1  UNL1        0.0547
     16 C         139.9763  144.1203  156.4125 C.ar    1  UNL1        0.0247
     17 C         139.0241  143.1028  153.8074 C.2     1  UNL1        0.2461
     18 O         138.3135  143.8157  152.6952 O.2     1  UNL1       -0.2701
     19 N         139.1130  141.7258  153.2192 N.am    1  UNL1       -0.2969
     20 C         139.4380  140.2674  153.0882 C.3     1  UNL1        0.1181
     21 C         139.9598  138.9032  153.4302 C.ar    1  UNL1        0.0167
     22 C         139.9668  137.5546  152.6832 C.ar    1  UNL1        0.0962
     23 N         140.4886  136.1904  153.0252 N.ar    1  UNL1       -0.2425
     24 C         141.1682  135.9558  154.3416 C.ar    1  UNL1        0.1003
     25 C         141.3260  137.0852  155.3161 C.ar    1  UNL1        0.0366
     26 C         140.6155  137.7981  154.2039 C.ar    1  UNL1        0.0020
     27 C         142.0056  136.8505  156.6325 C.ar    1  UNL1        0.0860
     28 C         142.2394  135.4035  156.3135 C.ar    1  UNL1        0.1180
     29 N         142.9507  134.7811  157.4784 N.ar    1  UNL1       -0.2249
     30 C         143.1564  135.8433  158.5172 C.ar    1  UNL1        0.1478
     31 C         143.7572  136.4802  160.1579 C.ar    1  UNL1        0.0374
     32 C         143.7402  137.8014  160.8679 C.ar    1  UNL1        0.0046
     33 C         143.1157  138.9973  160.2121 C.ar    1  UNL1        0.0192
     34 C         142.9579  137.8679  159.2376 C.ar    1  UNL1        0.0814
     35 N         142.5724  137.1223  157.9945 N.ar    1  UNL1       -0.2887
     36 H         141.6279  145.0433  160.4552 H       1  UNL1        0.1739
     37 H         138.6670  141.8799  152.3552 H       1  UNL1        0.1501
     38 C         141.6389  145.1443  163.5989 C.3     1  UNL1        0.2543
     39 O         142.6578  144.8456  162.5395 O.3     1  UNL1       -0.4553
@<TRIPOS>BOND
     1    38    39    1
     2    39     1    1
     3     1     2   ar
     4     2     3   ar
     5     3     4   ar
     6     4     5   ar
     7     5     6   ar
     8     6     7    1
     9     7     8    1
    10     8     9    2
    11     8    10    2
    12     8    11    1
    13    11    12   ar
    14    12    13   ar
    15    13    14   ar
    16    14    15   ar
    17    15    16   ar
    18    15    17    1
    19    17    18    2
    20    17    19   am
    21    19    20    1
    22    20    21    1
    23    21    22   ar
    24    22    23   ar
    25    23    24   ar
    26    24    25   ar
    27    25    26   ar
    28    25    27    1
    29    27    28   ar
    30    28    29   ar
    31    29    30   ar
    32    30    31   ar
    33    31    32   ar
    34    32    33   ar
    35    33    34   ar
    36    34    35   ar
    37     6     1   ar
    38    16    11   ar
    39    26    21   ar
    40    35    27   ar
    41    33     4    1
    42    35    30   ar
    43     7    36    1
    44    19    37    1
@<TRIPOS>MOLECULE
*****
 39 44 0 0 0
SMALL
GASTEIGER

@<TRIPOS>ATOM
      1 C         142.8002  140.0253  154.7563 C.ar    1  UNL1        0.2400
      2 N         143.3061  138.7327  155.3250 N.ar    1  UNL1       -0.2090
      3 C         143.2495  138.4910  156.8043 C.ar    1  UNL1        0.1021
      4 C         142.7486  139.3314  157.9959 C.ar    1  UNL1        0.0221
      5 C         142.5908  140.0213  156.6733 C.ar    1  UNL1        0.0222
      6 C         142.2376  141.0761  155.6670 C.ar    1  UNL1        0.1178
      7 N         141.7317  142.3686  155.0984 N.pl3   1  UNL1       -0.2104
      8 S         141.1340  143.7430  155.0360 S.O2    1  UNL1        0.0737
      9 O         140.8424  144.6884  153.9086 O.2     1  UNL1       -0.1499
     10 O         141.5203  143.2015  153.6915 O.2     1  UNL1       -0.1499
     11 C         140.5167  145.0335  155.4873 C.ar    1  UNL1        0.1253
     12 C         140.1635  146.0883  154.4810 C.ar    1  UNL1        0.0202
     13 C         139.5462  147.3787  154.9323 C.ar    1  UNL1        0.0015
     14 C         139.2820  147.6143  156.3900 C.ar    1  UNL1        0.0046
     15 C         139.6352  146.5595  157.3963 C.ar    1  UNL1        0.0547
     16 C         140.2525  145.2691  156.9449 C.ar    1  UNL1        0.0247
     17 C         139.2501  147.0044  159.1157 C.2     1  UNL1        0.2461
     18 O         138.6524  148.3788  159.0533 O.2     1  UNL1       -0.2701
     19 N         139.1935  146.7626  160.5950 N.am    1  UNL1       -0.2969
     20 C         139.3512  146.0728  161.9176 C.3     1  UNL1        0.1181
     21 C         139.7044  145.0179  162.9239 C.ar    1  UNL1        0.0167
     22 C         139.5733  144.9319  164.4576 C.ar    1  UNL1        0.0962
     23 N         139.9265  143.8770  165.4640 N.ar    1  UNL1       -0.2425
     24 C         140.5438  142.5867  165.0126 C.ar    1  UNL1        0.1003
     25 C         140.8080  142.3511  163.5550 C.ar    1  UNL1        0.0366
     26 C         140.2103  143.7254  163.4926 C.ar    1  UNL1        0.0020
     27 C         141.4253  141.0607  163.1036 C.ar    1  UNL1        0.0860
     28 C         141.4982  140.5429  164.5096 C.ar    1  UNL1        0.1180
     29 N         142.1058  139.1721  164.4678 N.ar    1  UNL1       -0.2249
     30 C         142.4084  138.8426  163.0362 C.ar    1  UNL1        0.1478
     31 C         143.0403  137.7476  161.6723 C.ar    1  UNL1        0.0374
     32 C         143.1591  137.8511  160.1807 C.ar    1  UNL1        0.0046
     33 C         142.6919  139.0898  159.4752 C.ar    1  UNL1        0.0192
     34 C         142.4278  139.3254  160.9328 C.ar    1  UNL1        0.0814
     35 N         141.9879  140.0098  162.1929 N.ar    1  UNL1       -0.2887
     36 H         141.9051  142.2140  154.1417 H       1  UNL1        0.1739
     37 H         138.7883  147.6096  160.8912 H       1  UNL1        0.1501
     38 C         144.0590  140.9278  152.6705 C.3     1  UNL1        0.2543
     39 O         142.8568  140.2670  153.2771 O.3     1  UNL1       -0.4553
@<TRIPOS>BOND
     1    38    39    1
     2    39     1    1
     3     1     2   ar
     4     2     3   ar
     5     3     4   ar
     6     4     5   ar
     7     5     6   ar
     8     6     7    1
     9     7     8    1
    10     8     9    2
    11     8    10    2
    12     8    11    1
    13    11    12   ar
    14    12    13   ar
    15    13    14   ar
    16    14    15   ar
    17    15    16   ar
    18    15    17    1
    19    17    18    2
    20    17    19   am
    21    19    20    1
    22    20    21    1
    23    21    22   ar
    24    22    23   ar
    25    23    24   ar
    26    24    25   ar
    27    25    26   ar
    28    25    27    1
    29    27    28   ar
    30    28    29   ar
    31    29    30   ar
    32    30    31   ar
    33    31    32   ar
    34    32    33   ar
    35    33    34   ar
    36    34    35   ar
    37     6     1   ar
    38    16    11   ar
    39    26    21   ar
    40    35    27   ar
    41    33     4    1
    42    35    30   ar
    43     7    36    1
    44    19    37    1
