@<TRIPOS>MOLECULE
*****
 30 33 0 0 0
SMALL
GASTEIGER

@<TRIPOS>ATOM
      1 C         140.1052  141.3799  165.8522 C.ar    1  UNL1        0.1694
      2 C         138.8131  141.7749  165.2009 C.ar    1  UNL1        0.0421
      3 C         138.7473  141.9546  163.7132 C.ar    1  UNL1        0.0390
      4 C         139.9737  141.7393  162.8768 C.ar    1  UNL1        0.1504
      5 N         141.2659  141.3443  163.5281 N.ar    1  UNL1       -0.1317
      6 N         141.3316  141.1646  165.0158 N.ar    1  UNL1       -0.1287
      7 C         140.6753  141.5534  169.6876 C.ar    1  UNL1        0.0722
      8 C         139.8692  140.2937  169.5711 C.ar    1  UNL1        0.0250
      9 C         139.5576  140.0755  168.1202 C.ar    1  UNL1        0.0817
     10 N         140.1711  141.2002  167.3400 N.ar    1  UNL1       -0.2874
     11 C         140.8619  142.1136  168.3087 C.ar    1  UNL1        0.0860
     12 N         142.5841  142.7308  170.9992 N.am    1  UNL1       -0.3253
     13 C         141.2024  142.1484  170.9597 C.2     1  UNL1        0.2443
     14 O         140.3477  142.1609  172.1923 O.2     1  UNL1       -0.2703
     15 H         142.9300  143.1213  171.8341 H       1  UNL1        0.1453
     16 H         143.1451  142.7226  170.1902 H       1  UNL1        0.1453
     17 N         139.9079  141.9190  161.3890 N.pl3   1  UNL1       -0.3164
     18 H         139.0958  141.6587  160.8971 H       1  UNL1        0.1483
     19 C         141.0795  142.4953  160.6506 C.3     1  UNL1        0.0938
     20 C         141.0650  143.9342  160.2271 C.3     1  UNL1        0.0556
     21 C         140.2474  143.5717  159.0230 C.3     1  UNL1        0.0073
     22 C         140.2329  145.0106  158.5996 C.3     1  UNL1        0.0009
     23 C         141.0506  145.3731  159.8037 C.3     1  UNL1        0.0073
     24 C         141.8827  144.2968  161.4313 C.ar    1  UNL1        0.0872
     25 N         143.3466  143.9719  161.4693 N.ar    1  UNL1       -0.2459
     26 C         144.1643  144.3344  162.6735 C.ar    1  UNL1        0.0986
     27 C         143.5180  145.0218  163.8396 C.ar    1  UNL1        0.0230
     28 C         142.0541  145.3467  163.8016 C.ar    1  UNL1        0.0325
     29 C         141.2365  144.9842  162.5974 C.ar    1  UNL1        0.1536
     30 F         139.7726  145.3091  162.5594 F       1  UNL1       -0.2029
@<TRIPOS>BOND
     1    12    13   am
     2    13    14    2
     3    13     7    1
     4     7     8   ar
     5     8     9   ar
     6     9    10   ar
     7    10     1    1
     8     1     2   ar
     9     2     3   ar
    10     3     4   ar
    11     4    17    1
    12    17    19    1
    13    19    20    1
    14    20    24    1
    15    24    25   ar
    16    25    26   ar
    17    26    27   ar
    18    27    28   ar
    19    28    29   ar
    20    29    30    1
    21    20    21    1
    22    21    22    1
    23    22    23    1
    24     4     5   ar
    25     5     6   ar
    26    10    11   ar
    27    11     7   ar
    28     6     1   ar
    29    23    20    1
    30    29    24   ar
    31    12    15    1
    32    12    16    1
    33    17    18    1
@<TRIPOS>MOLECULE
*****
 30 33 0 0 0
SMALL
GASTEIGER

@<TRIPOS>ATOM
      1 C         142.4779  142.1874  166.3119 C.ar    1  UNL1        0.1694
      2 C         143.6549  142.8797  165.6911 C.ar    1  UNL1        0.0421
      3 C         143.7175  143.0643  164.2038 C.ar    1  UNL1        0.0390
      4 C         142.6032  142.5568  163.3374 C.ar    1  UNL1        0.1504
      5 N         141.4262  141.8645  163.9583 N.ar    1  UNL1       -0.1317
      6 N         141.3636  141.6798  165.4455 N.ar    1  UNL1       -0.1287
      7 C         141.6025  141.5036  170.0310 C.ar    1  UNL1        0.0722
      8 C         143.0352  141.9333  170.1448 C.ar    1  UNL1        0.0250
      9 C         143.5374  142.2417  168.7654 C.ar    1  UNL1        0.0817
     10 N         142.4152  142.0027  167.7992 N.ar    1  UNL1       -0.2874
     11 C         141.2194  141.5465  168.5814 C.ar    1  UNL1        0.0860
     12 N         140.0981  139.7322  171.1924 N.am    1  UNL1       -0.3253
     13 C         140.7097  141.1016  171.1674 C.2     1  UNL1        0.2443
     14 O         140.4286  142.0689  172.2788 O.2     1  UNL1       -0.2703
     15 H         139.5121  139.4684  171.9383 H       1  UNL1        0.1453
     16 H         140.2826  139.0973  170.4630 H       1  UNL1        0.1453
     17 N         142.6659  142.7415  161.8501 N.pl3   1  UNL1       -0.3164
     18 H         143.5377  142.8288  161.4012 H       1  UNL1        0.1483
     19 C         141.4002  142.7932  161.0468 C.3     1  UNL1        0.0938
     20 C         140.8674  144.1122  160.5707 C.3     1  UNL1        0.0556
     21 C         141.8620  144.1087  159.4479 C.3     1  UNL1        0.0073
     22 C         141.3291  145.4276  158.9718 C.3     1  UNL1        0.0009
     23 C         140.3346  145.4310  160.0947 C.3     1  UNL1        0.0073
     24 C         139.8728  144.1156  161.6935 C.ar    1  UNL1        0.0872
     25 N         138.6124  143.3102  161.5815 N.ar    1  UNL1       -0.2459
     26 C         137.6178  143.3137  162.7044 C.ar    1  UNL1        0.0986
     27 C         137.8837  144.1226  163.9393 C.ar    1  UNL1        0.0230
     28 C         139.1441  144.9281  164.0513 C.ar    1  UNL1        0.0325
     29 C         140.1387  144.9246  162.9285 C.ar    1  UNL1        0.1536
     30 F         141.3991  145.7301  163.0405 F       1  UNL1       -0.2029
@<TRIPOS>BOND
     1    12    13   am
     2    13    14    2
     3    13     7    1
     4     7     8   ar
     5     8     9   ar
     6     9    10   ar
     7    10     1    1
     8     1     2   ar
     9     2     3   ar
    10     3     4   ar
    11     4    17    1
    12    17    19    1
    13    19    20    1
    14    20    24    1
    15    24    25   ar
    16    25    26   ar
    17    26    27   ar
    18    27    28   ar
    19    28    29   ar
    20    29    30    1
    21    20    21    1
    22    21    22    1
    23    22    23    1
    24     4     5   ar
    25     5     6   ar
    26    10    11   ar
    27    11     7   ar
    28     6     1   ar
    29    23    20    1
    30    29    24   ar
    31    12    15    1
    32    12    16    1
    33    17    18    1
@<TRIPOS>MOLECULE
*****
 30 33 0 0 0
SMALL
GASTEIGER

@<TRIPOS>ATOM
      1 C         140.9066  139.6917  166.4585 C.ar    1  UNL1        0.1694
      2 C         142.3410  139.2561  166.4099 C.ar    1  UNL1        0.0421
      3 C         142.9151  138.7059  165.1380 C.ar    1  UNL1        0.0390
      4 C         142.0546  138.5914  163.9147 C.ar    1  UNL1        0.1504
      5 N         140.6201  139.0270  163.9633 N.ar    1  UNL1       -0.1317
      6 N         140.0461  139.5772  165.2351 N.ar    1  UNL1       -0.1287
      7 C         139.9725  141.6256  169.6917 C.ar    1  UNL1        0.0722
      8 C         138.9254  140.5515  169.6836 C.ar    1  UNL1        0.0250
      9 C         139.1479  139.6964  168.4715 C.ar    1  UNL1        0.0817
     10 N         140.3324  140.2419  167.7304 N.ar    1  UNL1       -0.2874
     11 C         140.8421  141.4342  168.4845 C.ar    1  UNL1        0.0860
     12 N         140.0390  144.1447  170.3237 N.am    1  UNL1       -0.3253
     13 C         140.1235  142.7020  170.7254 C.2     1  UNL1        0.2443
     14 O         140.3590  142.3357  172.1608 O.2     1  UNL1       -0.2703
     15 H         140.1381  144.8512  171.0022 H       1  UNL1        0.1453
     16 H         139.8844  144.3852  169.3816 H       1  UNL1        0.1453
     17 N         142.6288  138.0412  162.6428 N.pl3   1  UNL1       -0.3164
     18 H         142.1895  137.2846  162.1912 H       1  UNL1        0.1483
     19 C         143.8721  138.6437  162.0589 C.3     1  UNL1        0.0938
     20 C         143.7682  139.7642  161.0670 C.3     1  UNL1        0.0556
     21 C         143.5149  138.7712  159.9717 C.3     1  UNL1        0.0073
     22 C         143.4110  139.8917  158.9799 C.3     1  UNL1        0.0009
     23 C         143.6643  140.8846  160.0752 C.3     1  UNL1        0.0073
     24 C         144.0216  140.7572  162.1623 C.ar    1  UNL1        0.0872
     25 N         145.3906  140.8780  162.7632 N.ar    1  UNL1       -0.2459
     26 C         145.6439  141.8711  163.8585 C.ar    1  UNL1        0.0986
     27 C         144.5282  142.7432  164.3529 C.ar    1  UNL1        0.0230
     28 C         143.1592  142.6224  163.7520 C.ar    1  UNL1        0.0325
     29 C         142.9058  141.6294  162.6567 C.ar    1  UNL1        0.1536
     30 F         141.5368  141.5086  162.0558 F       1  UNL1       -0.2029
@<TRIPOS>BOND
     1    12    13   am
     2    13    14    2
     3    13     7    1
     4     7     8   ar
     5     8     9   ar
     6     9    10   ar
     7    10     1    1
     8     1     2   ar
     9     2     3   ar
    10     3     4   ar
    11     4    17    1
    12    17    19    1
    13    19    20    1
    14    20    24    1
    15    24    25   ar
    16    25    26   ar
    17    26    27   ar
    18    27    28   ar
    19    28    29   ar
    20    29    30    1
    21    20    21    1
    22    21    22    1
    23    22    23    1
    24     4     5   ar
    25     5     6   ar
    26    10    11   ar
    27    11     7   ar
    28     6     1   ar
    29    23    20    1
    30    29    24   ar
    31    12    15    1
    32    12    16    1
    33    17    18    1
@<TRIPOS>MOLECULE
*****
 30 33 0 0 0
SMALL
GASTEIGER

@<TRIPOS>ATOM
      1 C         140.0770  140.7869  165.8584 C.ar    1  UNL1        0.1694
      2 C         140.2452  139.4219  165.2597 C.ar    1  UNL1        0.0421
      3 C         140.4423  139.2709  163.7805 C.ar    1  UNL1        0.0390
      4 C         140.4711  140.4848  162.8998 C.ar    1  UNL1        0.1504
      5 N         140.3029  141.8498  163.4984 N.ar    1  UNL1       -0.1317
      6 N         140.1059  142.0009  164.9777 N.ar    1  UNL1       -0.1287
      7 C         139.8854  141.8535  169.5855 C.ar    1  UNL1        0.0722
      8 C         139.2681  140.4876  169.6428 C.ar    1  UNL1        0.0250
      9 C         139.2647  139.9219  168.2536 C.ar    1  UNL1        0.0817
     10 N         139.8800  140.9381  167.3377 N.ar    1  UNL1       -0.2874
     11 C         140.2636  142.1319  168.1609 C.ar    1  UNL1        0.0860
     12 N         139.8977  144.2561  170.5741 N.am    1  UNL1       -0.3253
     13 C         140.0889  142.7786  170.7486 C.2     1  UNL1        0.2443
     14 O         140.4835  142.2262  172.0862 O.2     1  UNL1       -0.2703
     15 H         140.0313  144.8633  171.3375 H       1  UNL1        0.1453
     16 H         139.6388  144.6187  169.6962 H       1  UNL1        0.1453
     17 N         140.6682  140.3337  161.4205 N.pl3   1  UNL1       -0.3164
     18 H         139.8958  140.1551  160.8367 H       1  UNL1        0.1483
     19 C         142.0420  140.4545  160.8306 C.3     1  UNL1        0.0938
     20 C         142.9967  139.3003  160.9105 C.3     1  UNL1        0.0556
     21 C         142.1201  138.5109  159.9841 C.3     1  UNL1        0.0073
     22 C         143.0749  137.3568  160.0640 C.3     1  UNL1        0.0009
     23 C         143.9515  138.1462  160.9905 C.3     1  UNL1        0.0073
     24 C         143.8734  140.0897  161.8370 C.ar    1  UNL1        0.0872
     25 N         144.5025  141.3677  161.3671 N.ar    1  UNL1       -0.2459
     26 C         145.3792  142.1571  162.2937 C.ar    1  UNL1        0.0986
     27 C         145.6266  141.6684  163.6900 C.ar    1  UNL1        0.0230
     28 C         144.9975  140.3904  164.1600 C.ar    1  UNL1        0.0325
     29 C         144.1209  139.6010  163.2335 C.ar    1  UNL1        0.1536
     30 F         143.4917  138.3230  163.7034 F       1  UNL1       -0.2029
@<TRIPOS>BOND
     1    12    13   am
     2    13    14    2
     3    13     7    1
     4     7     8   ar
     5     8     9   ar
     6     9    10   ar
     7    10     1    1
     8     1     2   ar
     9     2     3   ar
    10     3     4   ar
    11     4    17    1
    12    17    19    1
    13    19    20    1
    14    20    24    1
    15    24    25   ar
    16    25    26   ar
    17    26    27   ar
    18    27    28   ar
    19    28    29   ar
    20    29    30    1
    21    20    21    1
    22    21    22    1
    23    22    23    1
    24     4     5   ar
    25     5     6   ar
    26    10    11   ar
    27    11     7   ar
    28     6     1   ar
    29    23    20    1
    30    29    24   ar
    31    12    15    1
    32    12    16    1
    33    17    18    1
@<TRIPOS>MOLECULE
*****
 30 33 0 0 0
SMALL
GASTEIGER

@<TRIPOS>ATOM
      1 C         139.3047  143.1783  161.1293 C.ar    1  UNL1        0.1694
      2 C         140.2755  142.6660  162.1515 C.ar    1  UNL1        0.0421
      3 C         139.7757  141.9193  163.3526 C.ar    1  UNL1        0.0390
      4 C         138.3049  141.6849  163.5314 C.ar    1  UNL1        0.1504
      5 N         137.3340  142.1972  162.5093 N.ar    1  UNL1       -0.1317
      6 N         137.8339  142.9439  161.3082 N.ar    1  UNL1       -0.1287
      7 C         140.2190  144.5892  157.6309 C.ar    1  UNL1        0.0722
      8 C         140.9284  145.5589  158.5290 C.ar    1  UNL1        0.0250
      9 C         140.6723  145.1483  159.9488 C.ar    1  UNL1        0.0817
     10 N         139.8045  143.9250  159.9282 N.ar    1  UNL1       -0.2874
     11 C         139.5243  143.5794  158.4957 C.ar    1  UNL1        0.0860
     12 N         140.0703  145.9326  155.4121 N.am    1  UNL1       -0.3253
     13 C         140.2063  144.6234  156.1313 C.2     1  UNL1        0.2443
     14 O         140.3297  143.3483  155.3510 O.2     1  UNL1       -0.2703
     15 H         140.0620  145.9550  154.4279 H       1  UNL1        0.1453
     16 H         139.9893  146.7695  155.9242 H       1  UNL1        0.1453
     17 N         137.8051  140.9382  164.7326 N.pl3   1  UNL1       -0.3164
     18 H         136.8591  141.0069  164.9963 H       1  UNL1        0.1483
     19 C         138.7466  140.0869  165.5318 C.3     1  UNL1        0.0938
     20 C         138.4929  138.6150  165.6705 C.3     1  UNL1        0.0556
     21 C         137.6830  138.8710  166.9068 C.3     1  UNL1        0.0073
     22 C         137.4293  137.3992  167.0454 C.3     1  UNL1        0.0009
     23 C         138.2392  137.1431  165.8091 C.3     1  UNL1        0.0073
     24 C         139.3028  138.3590  164.4342 C.ar    1  UNL1        0.0872
     25 N         138.6197  138.2156  163.1064 N.ar    1  UNL1       -0.2459
     26 C         139.4297  137.9596  161.8701 C.ar    1  UNL1        0.0986
     27 C         140.9226  137.8470  161.9615 C.ar    1  UNL1        0.0230
     28 C         141.6057  137.9903  163.2892 C.ar    1  UNL1        0.0325
     29 C         140.7958  138.2463  164.5255 C.ar    1  UNL1        0.1536
     30 F         141.4788  138.3897  165.8533 F       1  UNL1       -0.2029
@<TRIPOS>BOND
     1    12    13   am
     2    13    14    2
     3    13     7    1
     4     7     8   ar
     5     8     9   ar
     6     9    10   ar
     7    10     1    1
     8     1     2   ar
     9     2     3   ar
    10     3     4   ar
    11     4    17    1
    12    17    19    1
    13    19    20    1
    14    20    24    1
    15    24    25   ar
    16    25    26   ar
    17    26    27   ar
    18    27    28   ar
    19    28    29   ar
    20    29    30    1
    21    20    21    1
    22    21    22    1
    23    22    23    1
    24     4     5   ar
    25     5     6   ar
    26    10    11   ar
    27    11     7   ar
    28     6     1   ar
    29    23    20    1
    30    29    24   ar
    31    12    15    1
    32    12    16    1
    33    17    18    1
@<TRIPOS>MOLECULE
*****
 30 33 0 0 0
SMALL
GASTEIGER

@<TRIPOS>ATOM
      1 C         141.3325  145.1310  159.6637 C.ar    1  UNL1        0.1694
      2 C         140.4147  145.6024  160.7524 C.ar    1  UNL1        0.0421
      3 C         140.7445  145.3165  162.1875 C.ar    1  UNL1        0.0390
      4 C         141.9921  144.5591  162.5338 C.ar    1  UNL1        0.1504
      5 N         142.9099  144.0877  161.4450 N.ar    1  UNL1       -0.1317
      6 N         142.5801  144.3736  160.0100 N.ar    1  UNL1       -0.1287
      7 C         139.8973  146.2545  156.2368 C.ar    1  UNL1        0.0722
      8 C         141.0932  145.4594  155.8035 C.ar    1  UNL1        0.0250
      9 C         141.7764  144.9417  157.0345 C.ar    1  UNL1        0.0817
     10 N         141.0027  145.4170  158.2285 N.ar    1  UNL1       -0.2874
     11 C         139.8414  146.2283  157.7355 C.ar    1  UNL1        0.0860
     12 N         137.7667  146.2006  154.7510 N.am    1  UNL1       -0.3253
     13 C         138.9276  146.9532  155.3304 C.2     1  UNL1        0.2443
     14 O         139.1189  148.4046  155.0033 O.2     1  UNL1       -0.2703
     15 H         137.1303  146.6592  154.1561 H       1  UNL1        0.1453
     16 H         137.6412  145.2480  154.9656 H       1  UNL1        0.1453
     17 N         142.3219  144.2731  163.9689 N.pl3   1  UNL1       -0.3164
     18 H         142.5684  145.0099  164.5736 H       1  UNL1        0.1483
     19 C         142.2761  142.8646  164.4827 C.3     1  UNL1        0.0938
     20 C         141.7473  142.5849  165.8583 C.3     1  UNL1        0.0556
     21 C         143.1461  142.3588  166.3502 C.3     1  UNL1        0.0073
     22 C         142.6173  142.0791  167.7256 C.3     1  UNL1        0.0009
     23 C         141.2184  142.3051  167.2338 C.3     1  UNL1        0.0073
     24 C         140.3484  142.8109  165.3664 C.ar    1  UNL1        0.0872
     25 N         139.7417  144.1811  165.4343 N.ar    1  UNL1       -0.2459
     26 C         138.3427  144.4071  164.9424 C.ar    1  UNL1        0.0986
     27 C         137.5505  143.2630  164.3826 C.ar    1  UNL1        0.0230
     28 C         138.1572  141.8928  164.3147 C.ar    1  UNL1        0.0325
     29 C         139.5561  141.6668  164.8066 C.ar    1  UNL1        0.1536
     30 F         140.1628  140.2966  164.7387 F       1  UNL1       -0.2029
@<TRIPOS>BOND
     1    12    13   am
     2    13    14    2
     3    13     7    1
     4     7     8   ar
     5     8     9   ar
     6     9    10   ar
     7    10     1    1
     8     1     2   ar
     9     2     3   ar
    10     3     4   ar
    11     4    17    1
    12    17    19    1
    13    19    20    1
    14    20    24    1
    15    24    25   ar
    16    25    26   ar
    17    26    27   ar
    18    27    28   ar
    19    28    29   ar
    20    29    30    1
    21    20    21    1
    22    21    22    1
    23    22    23    1
    24     4     5   ar
    25     5     6   ar
    26    10    11   ar
    27    11     7   ar
    28     6     1   ar
    29    23    20    1
    30    29    24   ar
    31    12    15    1
    32    12    16    1
    33    17    18    1
@<TRIPOS>MOLECULE
*****
 30 33 0 0 0
SMALL
GASTEIGER

@<TRIPOS>ATOM
      1 C         139.3243  140.2518  165.7630 C.ar    1  UNL1        0.1694
      2 C         139.8746  138.9299  165.3160 C.ar    1  UNL1        0.0421
      3 C         139.4375  138.3391  164.0084 C.ar    1  UNL1        0.0390
      4 C         138.4502  139.0702  163.1478 C.ar    1  UNL1        0.1504
      5 N         137.8999  140.3921  163.5948 N.ar    1  UNL1       -0.1317
      6 N         138.3370  140.9828  164.9024 N.ar    1  UNL1       -0.1287
      7 C         140.1972  141.1364  169.4402 C.ar    1  UNL1        0.0722
      8 C         140.6708  142.3674  168.7256 C.ar    1  UNL1        0.0250
      9 C         140.4014  142.1858  167.2613 C.ar    1  UNL1        0.0817
     10 N         139.7614  140.8426  167.0707 N.ar    1  UNL1       -0.2874
     11 C         139.6352  140.1941  168.4173 C.ar    1  UNL1        0.0860
     12 N         140.0228  139.5161  171.4636 N.am    1  UNL1       -0.3253
     13 C         140.2725  140.8909  170.9180 C.2     1  UNL1        0.2443
     14 O         140.5975  142.0201  171.8503 O.2     1  UNL1       -0.2703
     15 H         140.0722  139.3550  172.4335 H       1  UNL1        0.1453
     16 H         139.8095  138.7749  170.8517 H       1  UNL1        0.1453
     17 N         138.0131  138.4793  161.8402 N.pl3   1  UNL1       -0.3164
     18 H         137.0939  138.1428  161.7348 H       1  UNL1        0.1483
     19 C         138.9765  138.4012  160.6931 C.3     1  UNL1        0.0938
     20 C         139.4344  139.6565  160.0115 C.3     1  UNL1        0.0556
     21 C         138.0087  140.0153  159.7142 C.3     1  UNL1        0.0073
     22 C         138.4667  141.2705  159.0326 C.3     1  UNL1        0.0009
     23 C         139.8924  140.9117  159.3298 C.3     1  UNL1        0.0073
     24 C         140.8602  139.2977  160.3087 C.ar    1  UNL1        0.0872
     25 N         141.5713  138.2853  159.4606 N.ar    1  UNL1       -0.2459
     26 C         142.9972  137.9266  159.7579 C.ar    1  UNL1        0.0986
     27 C         143.7118  138.5802  160.9033 C.ar    1  UNL1        0.0230
     28 C         143.0007  139.5925  161.7515 C.ar    1  UNL1        0.0325
     29 C         141.5749  139.9513  161.4542 C.ar    1  UNL1        0.1536
     30 F         140.8638  140.9637  162.3024 F       1  UNL1       -0.2029
@<TRIPOS>BOND
     1    12    13   am
     2    13    14    2
     3    13     7    1
     4     7     8   ar
     5     8     9   ar
     6     9    10   ar
     7    10     1    1
     8     1     2   ar
     9     2     3   ar
    10     3     4   ar
    11     4    17    1
    12    17    19    1
    13    19    20    1
    14    20    24    1
    15    24    25   ar
    16    25    26   ar
    17    26    27   ar
    18    27    28   ar
    19    28    29   ar
    20    29    30    1
    21    20    21    1
    22    21    22    1
    23    22    23    1
    24     4     5   ar
    25     5     6   ar
    26    10    11   ar
    27    11     7   ar
    28     6     1   ar
    29    23    20    1
    30    29    24   ar
    31    12    15    1
    32    12    16    1
    33    17    18    1
@<TRIPOS>MOLECULE
*****
 30 33 0 0 0
SMALL
GASTEIGER

@<TRIPOS>ATOM
      1 C         140.5562  142.8799  166.0648 C.ar    1  UNL1        0.1694
      2 C         139.4585  143.8507  165.7448 C.ar    1  UNL1        0.0421
      3 C         139.5101  144.6497  164.4763 C.ar    1  UNL1        0.0390
      4 C         140.6594  144.4778  163.5279 C.ar    1  UNL1        0.1504
      5 N         141.7572  143.5070  163.8480 N.ar    1  UNL1       -0.1317
      6 N         141.7056  142.7081  165.1164 N.ar    1  UNL1       -0.1287
      7 C         140.8045  141.3918  169.6410 C.ar    1  UNL1        0.0722
      8 C         140.0459  140.3109  168.9293 C.ar    1  UNL1        0.0250
      9 C         139.8606  140.7369  167.5031 C.ar    1  UNL1        0.0817
     10 N         140.5046  142.0809  167.3333 N.ar    1  UNL1       -0.2874
     11 C         141.0880  142.4856  168.6546 C.ar    1  UNL1        0.0860
     12 N         142.3627  140.5343  171.5349 N.am    1  UNL1       -0.3253
     13 C         141.2087  141.3806  171.0855 C.2     1  UNL1        0.2443
     14 O         140.4589  142.2158  172.0806 O.2     1  UNL1       -0.2703
     15 H         142.6279  140.5269  172.4830 H       1  UNL1        0.1453
     16 H         142.8548  139.9861  170.8819 H       1  UNL1        0.1453
     17 N         140.7110  145.2768  162.2594 N.pl3   1  UNL1       -0.3164
     18 H         140.2983  146.1699  162.2231 H       1  UNL1        0.1483
     19 C         141.3914  144.7151  161.0464 C.3     1  UNL1        0.0938
     20 C         140.5879  144.3726  159.8269 C.3     1  UNL1        0.0556
     21 C         141.2573  145.4838  159.0737 C.3     1  UNL1        0.0073
     22 C         140.4538  145.1413  157.8543 C.3     1  UNL1        0.0009
     23 C         139.7845  144.0301  158.6074 C.3     1  UNL1        0.0073
     24 C         139.9186  143.2615  160.5800 C.ar    1  UNL1        0.0872
     25 N         138.5482  143.4645  161.1553 N.ar    1  UNL1       -0.2459
     26 C         137.8789  142.3533  161.9085 C.ar    1  UNL1        0.0986
     27 C         138.5798  141.0391  162.0863 C.ar    1  UNL1        0.0230
     28 C         139.9501  140.8361  161.5110 C.ar    1  UNL1        0.0325
     29 C         140.6195  141.9473  160.7578 C.ar    1  UNL1        0.1536
     30 F         141.9898  141.7443  160.1825 F       1  UNL1       -0.2029
@<TRIPOS>BOND
     1    12    13   am
     2    13    14    2
     3    13     7    1
     4     7     8   ar
     5     8     9   ar
     6     9    10   ar
     7    10     1    1
     8     1     2   ar
     9     2     3   ar
    10     3     4   ar
    11     4    17    1
    12    17    19    1
    13    19    20    1
    14    20    24    1
    15    24    25   ar
    16    25    26   ar
    17    26    27   ar
    18    27    28   ar
    19    28    29   ar
    20    29    30    1
    21    20    21    1
    22    21    22    1
    23    22    23    1
    24     4     5   ar
    25     5     6   ar
    26    10    11   ar
    27    11     7   ar
    28     6     1   ar
    29    23    20    1
    30    29    24   ar
    31    12    15    1
    32    12    16    1
    33    17    18    1
@<TRIPOS>MOLECULE
*****
 30 33 0 0 0
SMALL
GASTEIGER

@<TRIPOS>ATOM
      1 C         138.9768  142.5807  160.7165 C.ar    1  UNL1        0.1694
      2 C         139.8896  141.5398  161.2937 C.ar    1  UNL1        0.0421
      3 C         139.5368  140.8670  162.5870 C.ar    1  UNL1        0.0390
      4 C         138.2712  141.2350  163.3031 C.ar    1  UNL1        0.1504
      5 N         137.3583  142.2759  162.7259 N.ar    1  UNL1       -0.1317
      6 N         137.7111  142.9487  161.4326 N.ar    1  UNL1       -0.1287
      7 C         140.3151  144.7683  157.8029 C.ar    1  UNL1        0.0722
      8 C         139.4296  143.8100  157.0628 C.ar    1  UNL1        0.0250
      9 C         138.8205  142.8740  158.0642 C.ar    1  UNL1        0.0817
     10 N         139.3295  143.2537  159.4231 N.ar    1  UNL1       -0.2874
     11 C         140.2533  144.4244  159.2616 C.ar    1  UNL1        0.0860
     12 N         142.4693  146.2198  157.7517 N.am    1  UNL1       -0.3253
     13 C         141.1210  145.8759  157.1915 C.2     1  UNL1        0.2443
     14 O         140.5785  146.6397  156.0200 O.2     1  UNL1       -0.2703
     15 H         142.9982  146.9468  157.3504 H       1  UNL1        0.1453
     16 H         142.8253  145.7185  158.5206 H       1  UNL1        0.1453
     17 N         137.9184  140.5620  164.5965 N.pl3   1  UNL1       -0.3164
     18 H         137.0229  140.6845  164.9869 H       1  UNL1        0.1483
     19 C         138.9299  139.7025  165.2951 C.3     1  UNL1        0.0938
     20 C         139.3940  140.0618  166.6756 C.3     1  UNL1        0.0556
     21 C         138.2668  139.2645  167.2619 C.3     1  UNL1        0.0073
     22 C         138.7309  139.6238  168.6423 C.3     1  UNL1        0.0009
     23 C         139.8581  140.4210  168.0559 C.3     1  UNL1        0.0073
     24 C         140.5212  140.8590  166.0892 C.ar    1  UNL1        0.0872
     25 N         140.3534  142.3299  165.8480 N.ar    1  UNL1       -0.2459
     26 C         141.4807  143.1271  165.2616 C.ar    1  UNL1        0.0986
     27 C         142.7756  142.4534  164.9163 C.ar    1  UNL1        0.0230
     28 C         142.9433  140.9824  165.1575 C.ar    1  UNL1        0.0325
     29 C         141.8162  140.1852  165.7439 C.ar    1  UNL1        0.1536
     30 F         141.9839  138.7143  165.9850 F       1  UNL1       -0.2029
@<TRIPOS>BOND
     1    12    13   am
     2    13    14    2
     3    13     7    1
     4     7     8   ar
     5     8     9   ar
     6     9    10   ar
     7    10     1    1
     8     1     2   ar
     9     2     3   ar
    10     3     4   ar
    11     4    17    1
    12    17    19    1
    13    19    20    1
    14    20    24    1
    15    24    25   ar
    16    25    26   ar
    17    26    27   ar
    18    27    28   ar
    19    28    29   ar
    20    29    30    1
    21    20    21    1
    22    21    22    1
    23    22    23    1
    24     4     5   ar
    25     5     6   ar
    26    10    11   ar
    27    11     7   ar
    28     6     1   ar
    29    23    20    1
    30    29    24   ar
    31    12    15    1
    32    12    16    1
    33    17    18    1
