@<TRIPOS>MOLECULE
*****
 33 36 0 0 0
SMALL
GASTEIGER

@<TRIPOS>ATOM
      1 N         143.3175  140.2726  160.5308 N.3     1  UNL1       -0.2668
      2 C         142.0153  140.4948  159.8205 C.3     1  UNL1        0.1035
      3 C         141.3231  141.8217  159.9209 C.3     1  UNL1        0.1470
      4 C         140.6309  143.1487  160.0212 C.3     1  UNL1        0.1035
      5 N         141.2410  144.2535  160.8320 N.3     1  UNL1       -0.2673
      6 C         142.5434  144.0312  161.5423 C.3     1  UNL1        0.1035
      7 C         143.2355  142.7043  161.4420 C.3     1  UNL1        0.1470
      8 C         143.9277  141.3773  161.3416 C.3     1  UNL1        0.1035
      9 O         141.9333  142.9265  160.7316 O.3     1  UNL1       -0.3530
     10 C         144.0098  138.9456  160.4305 C.3     1  UNL1        0.0989
     11 C         143.8009  137.9084  161.4938 C.3     1  UNL1        0.1443
     12 C         138.8266  137.4947  163.2159 C.3     1  UNL1        0.0540
     13 C         140.2987  137.7772  163.1621 C.ar    1  UNL1        0.0801
     14 C         141.1301  138.3388  164.2772 C.ar    1  UNL1        0.0308
     15 C         142.5433  138.4563  163.7879 C.ar    1  UNL1        0.0572
     16 C         143.7096  138.9722  164.5775 C.3     1  UNL1        0.0517
     17 N         142.5852  137.9673  162.3705 N.ar    1  UNL1       -0.2538
     18 N         141.1980  137.5476  161.9837 N.ar    1  UNL1       -0.1739
     19 C         140.5489  145.5804  160.9323 C.3     1  UNL1        0.0913
     20 C         139.6827  145.8867  162.1181 C.3     1  UNL1        0.1087
     21 N         140.1340  145.5021  163.4959 N.3     1  UNL1       -0.1780
     22 H         139.7964  146.2268  164.1293 H       1  UNL1        0.1488
     23 S         139.7162  144.1860  164.0818 S.O2    1  UNL1        0.0603
     24 O         141.0622  144.0468  164.7289 O.2     1  UNL1       -0.1530
     25 O         138.3702  144.3252  163.4347 O.2     1  UNL1       -0.1530
     26 C         139.2983  142.8698  164.6677 C.ar    1  UNL1        0.1220
     27 C         139.9956  142.3348  165.8832 C.ar    1  UNL1        0.0206
     28 C         139.5778  141.0187  166.4691 C.ar    1  UNL1        0.0116
     29 C         138.4627  140.2377  165.8395 C.ar    1  UNL1        0.0685
     30 C         137.7654  140.7727  164.6239 C.ar    1  UNL1        0.0116
     31 C         138.1832  142.0888  164.0380 C.ar    1  UNL1        0.0206
     32 C         138.0449  138.9215  166.4254 C.1     1  UNL1        0.1004
     33 N         137.6270  137.6054  167.0112 N.1     1  UNL1       -0.1908
@<TRIPOS>BOND
     1    12    13    1
     2    13    14   ar
     3    14    15   ar
     4    15    16    1
     5    15    17   ar
     6    17    11    1
     7    11    10    1
     8    10     1    1
     9     1     2    1
    10     2     3    1
    11     3     4    1
    12     4     5    1
    13     5    19    1
    14    19    20    1
    15    20    21    1
    16    21    23    1
    17    23    24    2
    18    23    25    2
    19    23    26    1
    20    26    27   ar
    21    27    28   ar
    22    28    29   ar
    23    29    32    1
    24    32    33    3
    25    29    30   ar
    26    30    31   ar
    27     5     6    1
    28     6     7    1
    29     7     8    1
    30     7     9    1
    31    17    18   ar
    32    18    13   ar
    33     8     1    1
    34     9     3    1
    35    31    26   ar
    36    21    22    1
@<TRIPOS>MOLECULE
*****
 33 36 0 0 0
SMALL
GASTEIGER

@<TRIPOS>ATOM
      1 N         144.5915  141.5652  163.5128 N.3     1  UNL1       -0.2668
      2 C         144.3489  141.5119  162.0335 C.3     1  UNL1        0.1035
      3 C         143.4060  142.4866  161.3926 C.3     1  UNL1        0.1470
      4 C         142.4630  143.4614  160.7516 C.3     1  UNL1        0.1035
      5 N         141.7626  144.4893  161.5900 N.3     1  UNL1       -0.2673
      6 C         142.0052  144.5424  163.0694 C.3     1  UNL1        0.1035
      7 C         142.9482  143.5678  163.7102 C.3     1  UNL1        0.1470
      8 C         143.8911  142.5931  164.3511 C.3     1  UNL1        0.1035
      9 O         142.7056  143.5145  162.2310 O.3     1  UNL1       -0.3530
     10 C         145.5345  140.5904  164.1537 C.3     1  UNL1        0.0989
     11 C         145.1309  139.1554  164.3203 C.3     1  UNL1        0.1443
     12 C         140.3243  137.7477  162.6486 C.3     1  UNL1        0.0540
     13 C         141.4698  138.1310  163.5377 C.ar    1  UNL1        0.0801
     14 C         141.4208  138.2635  165.0311 C.ar    1  UNL1        0.0308
     15 C         142.7864  138.6635  165.5060 C.ar    1  UNL1        0.0572
     16 C         143.1883  138.9062  166.9306 C.3     1  UNL1        0.0517
     17 N         143.6792  138.7780  164.3061 N.ar    1  UNL1       -0.2538
     18 N         142.8656  138.4489  163.0897 N.ar    1  UNL1       -0.1739
     19 C         140.8197  145.4640  160.9491 C.3     1  UNL1        0.0913
     20 C         139.8351  146.2196  161.7916 C.3     1  UNL1        0.1087
     21 N         138.5033  145.6108  162.1165 N.3     1  UNL1       -0.1780
     22 H         138.0065  145.5001  161.2326 H       1  UNL1        0.1488
     23 S         138.4350  144.2879  162.8202 S.O2    1  UNL1        0.0603
     24 O         138.8198  144.9533  164.1083 O.2     1  UNL1       -0.1530
     25 O         138.0503  143.6226  161.5321 O.2     1  UNL1       -0.1530
     26 C         138.3668  142.9649  163.5239 C.ar    1  UNL1        0.1220
     27 C         137.6014  141.8289  162.9126 C.ar    1  UNL1        0.0206
     28 C         137.5331  140.5060  163.6162 C.ar    1  UNL1        0.0116
     29 C         138.2302  140.3191  164.9311 C.ar    1  UNL1        0.0685
     30 C         138.9956  141.4551  165.5424 C.ar    1  UNL1        0.0116
     31 C         139.0639  142.7780  164.8388 C.ar    1  UNL1        0.0206
     32 C         138.1620  138.9961  165.6348 C.1     1  UNL1        0.1004
     33 N         138.0937  137.6732  166.3385 N.1     1  UNL1       -0.1908
@<TRIPOS>BOND
     1    12    13    1
     2    13    14   ar
     3    14    15   ar
     4    15    16    1
     5    15    17   ar
     6    17    11    1
     7    11    10    1
     8    10     1    1
     9     1     2    1
    10     2     3    1
    11     3     4    1
    12     4     5    1
    13     5    19    1
    14    19    20    1
    15    20    21    1
    16    21    23    1
    17    23    24    2
    18    23    25    2
    19    23    26    1
    20    26    27   ar
    21    27    28   ar
    22    28    29   ar
    23    29    32    1
    24    32    33    3
    25    29    30   ar
    26    30    31   ar
    27     5     6    1
    28     6     7    1
    29     7     8    1
    30     7     9    1
    31    17    18   ar
    32    18    13   ar
    33     8     1    1
    34     9     3    1
    35    31    26   ar
    36    21    22    1
@<TRIPOS>MOLECULE
*****
 33 36 0 0 0
SMALL
GASTEIGER

@<TRIPOS>ATOM
      1 N         142.7136  139.8597  160.0152 N.3     1  UNL1       -0.2668
      2 C         143.6113  141.0353  160.2644 C.3     1  UNL1        0.1035
      3 C         143.0324  142.4165  160.3483 C.3     1  UNL1        0.1470
      4 C         142.4535  143.7978  160.4322 C.3     1  UNL1        0.1035
      5 N         140.9769  144.0034  160.2668 N.3     1  UNL1       -0.2673
      6 C         140.0792  142.8277  160.0175 C.3     1  UNL1        0.1035
      7 C         140.6581  141.4465  159.9337 C.3     1  UNL1        0.1470
      8 C         141.2370  140.0653  159.8498 C.3     1  UNL1        0.1035
      9 O         141.5558  142.6221  160.1829 O.3     1  UNL1       -0.3530
     10 C         143.2926  138.4784  159.9313 C.3     1  UNL1        0.0989
     11 C         143.5670  137.7028  161.1855 C.3     1  UNL1        0.1443
     12 C         139.4310  137.4571  164.4586 C.3     1  UNL1        0.0540
     13 C         140.7837  137.7679  163.8901 C.ar    1  UNL1        0.0801
     14 C         141.8713  138.5417  164.5747 C.ar    1  UNL1        0.0308
     15 C         143.0463  138.6114  163.6448 C.ar    1  UNL1        0.0572
     16 C         144.3532  139.2923  163.9250 C.3     1  UNL1        0.0517
     17 N         142.6849  137.8808  162.3856 N.ar    1  UNL1       -0.2538
     18 N         141.2866  137.3595  162.5372 N.ar    1  UNL1       -0.1739
     19 C         140.3979  145.3846  160.3507 C.3     1  UNL1        0.0913
     20 C         139.8616  145.8951  161.6552 C.3     1  UNL1        0.1087
     21 N         140.7939  146.1431  162.8038 N.3     1  UNL1       -0.1780
     22 H         140.3740  146.8802  163.3701 H       1  UNL1        0.1488
     23 S         141.1448  145.0248  163.7398 S.O2    1  UNL1        0.0603
     24 O         139.6868  144.7352  163.9404 O.2     1  UNL1       -0.1530
     25 O         142.6028  145.3144  163.5393 O.2     1  UNL1       -0.1530
     26 C         141.4957  143.9064  164.6759 C.ar    1  UNL1        0.1220
     27 C         142.9113  143.4181  164.7636 C.ar    1  UNL1        0.0206
     28 C         143.2623  142.2998  165.6996 C.ar    1  UNL1        0.0116
     29 C         142.1977  141.6698  166.5480 C.ar    1  UNL1        0.0685
     30 C         140.7821  142.1581  166.4603 C.ar    1  UNL1        0.0116
     31 C         140.4311  143.2764  165.5242 C.ar    1  UNL1        0.0206
     32 C         142.5486  140.5515  167.4840 C.1     1  UNL1        0.1004
     33 N         142.8995  139.4332  168.4201 N.1     1  UNL1       -0.1908
@<TRIPOS>BOND
     1    12    13    1
     2    13    14   ar
     3    14    15   ar
     4    15    16    1
     5    15    17   ar
     6    17    11    1
     7    11    10    1
     8    10     1    1
     9     1     2    1
    10     2     3    1
    11     3     4    1
    12     4     5    1
    13     5    19    1
    14    19    20    1
    15    20    21    1
    16    21    23    1
    17    23    24    2
    18    23    25    2
    19    23    26    1
    20    26    27   ar
    21    27    28   ar
    22    28    29   ar
    23    29    32    1
    24    32    33    3
    25    29    30   ar
    26    30    31   ar
    27     5     6    1
    28     6     7    1
    29     7     8    1
    30     7     9    1
    31    17    18   ar
    32    18    13   ar
    33     8     1    1
    34     9     3    1
    35    31    26   ar
    36    21    22    1
@<TRIPOS>MOLECULE
*****
 33 36 0 0 0
SMALL
GASTEIGER

@<TRIPOS>ATOM
      1 N         139.9593  142.5414  160.0348 N.3     1  UNL1       -0.2668
      2 C         140.9513  141.4210  160.1375 C.3     1  UNL1        0.1035
      3 C         140.6311  140.2089  160.9610 C.3     1  UNL1        0.1470
      4 C         140.3109  138.9967  161.7845 C.3     1  UNL1        0.1035
      5 N         138.9987  138.9050  162.5053 N.3     1  UNL1       -0.2673
      6 C         138.0066  140.0254  162.4026 C.3     1  UNL1        0.1035
      7 C         138.3268  141.2375  161.5791 C.3     1  UNL1        0.1470
      8 C         138.6471  142.4497  160.7557 C.3     1  UNL1        0.1035
      9 O         139.3189  140.1172  161.6818 O.3     1  UNL1       -0.3530
     10 C         140.2795  143.7536  159.2113 C.3     1  UNL1        0.0989
     11 C         141.3031  144.7386  159.6931 C.3     1  UNL1        0.1443
     12 C         143.9753  144.1285  164.2061 C.3     1  UNL1        0.0540
     13 C         142.9085  144.4986  163.2187 C.ar    1  UNL1        0.0801
     14 C         141.6126  145.1841  163.5364 C.ar    1  UNL1        0.0308
     15 C         140.8535  145.3574  162.2543 C.ar    1  UNL1        0.0572
     16 C         139.5045  145.9968  162.1080 C.3     1  UNL1        0.0517
     17 N         141.6802  144.7791  161.1443 N.ar    1  UNL1       -0.2538
     18 N         142.9503  144.2483  161.7404 N.ar    1  UNL1       -0.1739
     19 C         138.6785  137.6928  163.3288 C.3     1  UNL1        0.0913
     20 C         138.9398  137.6992  164.8059 C.3     1  UNL1        0.1087
     21 N         138.2754  138.7205  165.6807 N.3     1  UNL1       -0.1780
     22 H         137.6198  138.2156  166.2772 H       1  UNL1        0.1488
     23 S         139.1027  139.5872  166.5831 S.O2    1  UNL1        0.0603
     24 O         139.8276  140.1369  165.3905 O.2     1  UNL1       -0.1530
     25 O         138.3778  139.0374  167.7757 O.2     1  UNL1       -0.1530
     26 C         139.9301  140.4539  167.4856 C.ar    1  UNL1        0.1220
     27 C         141.0157  141.3144  166.9104 C.ar    1  UNL1        0.0206
     28 C         141.8431  142.1811  167.8128 C.ar    1  UNL1        0.0116
     29 C         141.5847  142.1872  169.2903 C.ar    1  UNL1        0.0685
     30 C         140.4991  141.3267  169.8655 C.ar    1  UNL1        0.0116
     31 C         139.6717  140.4600  168.9631 C.ar    1  UNL1        0.0206
     32 C         142.4121  143.0539  170.1928 C.1     1  UNL1        0.1004
     33 N         143.2394  143.9205  171.0953 N.1     1  UNL1       -0.1908
@<TRIPOS>BOND
     1    12    13    1
     2    13    14   ar
     3    14    15   ar
     4    15    16    1
     5    15    17   ar
     6    17    11    1
     7    11    10    1
     8    10     1    1
     9     1     2    1
    10     2     3    1
    11     3     4    1
    12     4     5    1
    13     5    19    1
    14    19    20    1
    15    20    21    1
    16    21    23    1
    17    23    24    2
    18    23    25    2
    19    23    26    1
    20    26    27   ar
    21    27    28   ar
    22    28    29   ar
    23    29    32    1
    24    32    33    3
    25    29    30   ar
    26    30    31   ar
    27     5     6    1
    28     6     7    1
    29     7     8    1
    30     7     9    1
    31    17    18   ar
    32    18    13   ar
    33     8     1    1
    34     9     3    1
    35    31    26   ar
    36    21    22    1
@<TRIPOS>MOLECULE
*****
 33 36 0 0 0
SMALL
GASTEIGER

@<TRIPOS>ATOM
      1 N         140.4061  144.2404  162.5248 N.3     1  UNL1       -0.2668
      2 C         139.1237  143.8646  163.2061 C.3     1  UNL1        0.1035
      3 C         138.4135  142.6003  162.8229 C.3     1  UNL1        0.1470
      4 C         137.7031  141.3359  162.4397 C.3     1  UNL1        0.1035
      5 N         138.2753  140.4473  161.3752 N.3     1  UNL1       -0.2673
      6 C         139.5578  140.8232  160.6939 C.3     1  UNL1        0.1035
      7 C         140.2680  142.0875  161.0771 C.3     1  UNL1        0.1470
      8 C         140.9783  143.3519  161.4604 C.3     1  UNL1        0.1035
      9 O         138.9856  141.7117  161.7584 O.3     1  UNL1       -0.3530
     10 C         141.1165  145.5049  162.9080 C.3     1  UNL1        0.0989
     11 C         142.2468  145.4611  163.8931 C.3     1  UNL1        0.1443
     12 C         145.8874  141.6497  163.5775 C.3     1  UNL1        0.0540
     13 C         144.6688  142.4291  163.9742 C.ar    1  UNL1        0.0801
     14 C         143.6259  141.9934  164.9605 C.ar    1  UNL1        0.0308
     15 C         142.5917  143.0763  165.0501 C.ar    1  UNL1        0.0572
     16 C         141.3685  143.0575  165.9182 C.3     1  UNL1        0.0517
     17 N         142.9954  144.1810  164.1193 N.ar    1  UNL1       -0.2538
     18 N         144.2791  143.7811  163.4544 N.ar    1  UNL1       -0.1739
     19 C         137.5650  139.1830  160.9920 C.3     1  UNL1        0.0913
     20 C         137.8372  137.9129  161.7423 C.3     1  UNL1        0.1087
     21 N         139.2492  137.5121  162.0512 N.3     1  UNL1       -0.1780
     22 H         139.8248  137.8406  161.2758 H       1  UNL1        0.1488
     23 S         139.9061  137.9914  163.3116 S.O2    1  UNL1        0.0603
     24 O         141.1746  138.2473  162.5531 O.2     1  UNL1       -0.1530
     25 O         138.6376  137.7354  164.0701 O.2     1  UNL1       -0.1530
     26 C         140.5631  138.4706  164.5721 C.ar    1  UNL1        0.1220
     27 C         142.0172  138.1921  164.8126 C.ar    1  UNL1        0.0206
     28 C         142.6742  138.6713  166.0731 C.ar    1  UNL1        0.0116
     29 C         141.8770  139.4291  167.0929 C.ar    1  UNL1        0.0685
     30 C         140.4229  139.7077  166.8524 C.ar    1  UNL1        0.0116
     31 C         139.7659  139.2284  165.5920 C.ar    1  UNL1        0.0206
     32 C         142.5340  139.9084  168.3534 C.1     1  UNL1        0.1004
     33 N         143.1909  140.3876  169.6139 N.1     1  UNL1       -0.1908
@<TRIPOS>BOND
     1    12    13    1
     2    13    14   ar
     3    14    15   ar
     4    15    16    1
     5    15    17   ar
     6    17    11    1
     7    11    10    1
     8    10     1    1
     9     1     2    1
    10     2     3    1
    11     3     4    1
    12     4     5    1
    13     5    19    1
    14    19    20    1
    15    20    21    1
    16    21    23    1
    17    23    24    2
    18    23    25    2
    19    23    26    1
    20    26    27   ar
    21    27    28   ar
    22    28    29   ar
    23    29    32    1
    24    32    33    3
    25    29    30   ar
    26    30    31   ar
    27     5     6    1
    28     6     7    1
    29     7     8    1
    30     7     9    1
    31    17    18   ar
    32    18    13   ar
    33     8     1    1
    34     9     3    1
    35    31    26   ar
    36    21    22    1
@<TRIPOS>MOLECULE
*****
 33 36 0 0 0
SMALL
GASTEIGER

@<TRIPOS>ATOM
      1 N         144.6255  141.4763  163.8214 N.3     1  UNL1       -0.2668
      2 C         144.2998  140.0271  164.0307 C.3     1  UNL1        0.1035
      3 C         143.4885  139.6049  165.2195 C.3     1  UNL1        0.1470
      4 C         142.6771  139.1826  166.4084 C.3     1  UNL1        0.1035
      5 N         142.1915  140.2095  167.3880 N.3     1  UNL1       -0.2673
      6 C         142.5173  141.6587  167.1787 C.3     1  UNL1        0.1035
      7 C         143.3286  142.0810  165.9899 C.3     1  UNL1        0.1470
      8 C         144.1399  142.5032  164.8010 C.3     1  UNL1        0.1035
      9 O         143.0029  140.6318  166.1991 O.3     1  UNL1       -0.3530
     10 C         145.4369  141.8986  162.6325 C.3     1  UNL1        0.0989
     11 C         144.7675  142.5596  161.4642 C.3     1  UNL1        0.1443
     12 C         140.5060  145.6076  162.1192 C.3     1  UNL1        0.0540
     13 C         141.3837  144.4158  161.8763 C.ar    1  UNL1        0.0801
     14 C         140.9158  143.0146  161.6159 C.ar    1  UNL1        0.0308
     15 C         142.1265  142.1487  161.4298 C.ar    1  UNL1        0.0572
     16 C         142.1218  140.6755  161.1478 C.3     1  UNL1        0.0517
     17 N         143.3425  143.0148  161.5752 N.ar    1  UNL1       -0.2538
     18 N         142.8835  144.4159  161.8512 N.ar    1  UNL1       -0.1739
     19 C         141.3802  139.7873  168.5769 C.3     1  UNL1        0.0913
     20 C         139.9470  140.2137  168.6965 C.3     1  UNL1        0.1087
     21 N         138.8678  139.4111  168.0324 N.3     1  UNL1       -0.1780
     22 H         137.9874  139.6821  168.4704 H       1  UNL1        0.1488
     23 S         138.6629  139.5118  166.5499 S.O2    1  UNL1        0.0603
     24 O         138.1408  138.1059  166.5265 O.2     1  UNL1       -0.1530
     25 O         139.1851  140.9178  166.5733 O.2     1  UNL1       -0.1530
     26 C         138.4581  139.6126  165.0673 C.ar    1  UNL1        0.1220
     27 C         137.9321  140.8830  164.4675 C.ar    1  UNL1        0.0206
     28 C         137.7273  140.9838  162.9850 C.ar    1  UNL1        0.0116
     29 C         138.0483  139.8143  162.1023 C.ar    1  UNL1        0.0685
     30 C         138.5742  138.5440  162.7021 C.ar    1  UNL1        0.0116
     31 C         138.7791  138.4432  164.1846 C.ar    1  UNL1        0.0206
     32 C         137.8434  139.9151  160.6198 C.1     1  UNL1        0.1004
     33 N         137.6386  140.0159  159.1373 N.1     1  UNL1       -0.1908
@<TRIPOS>BOND
     1    12    13    1
     2    13    14   ar
     3    14    15   ar
     4    15    16    1
     5    15    17   ar
     6    17    11    1
     7    11    10    1
     8    10     1    1
     9     1     2    1
    10     2     3    1
    11     3     4    1
    12     4     5    1
    13     5    19    1
    14    19    20    1
    15    20    21    1
    16    21    23    1
    17    23    24    2
    18    23    25    2
    19    23    26    1
    20    26    27   ar
    21    27    28   ar
    22    28    29   ar
    23    29    32    1
    24    32    33    3
    25    29    30   ar
    26    30    31   ar
    27     5     6    1
    28     6     7    1
    29     7     8    1
    30     7     9    1
    31    17    18   ar
    32    18    13   ar
    33     8     1    1
    34     9     3    1
    35    31    26   ar
    36    21    22    1
@<TRIPOS>MOLECULE
*****
 33 36 0 0 0
SMALL
GASTEIGER

@<TRIPOS>ATOM
      1 N         138.1523  141.3971  162.3664 N.3     1  UNL1       -0.2668
      2 C         138.8072  142.1712  161.2611 C.3     1  UNL1        0.1035
      3 C         139.6349  141.4573  160.2339 C.3     1  UNL1        0.1470
      4 C         140.4627  140.7435  159.2066 C.3     1  UNL1        0.1035
      5 N         140.6354  139.2555  159.2846 N.3     1  UNL1       -0.2673
      6 C         139.9804  138.4814  160.3900 C.3     1  UNL1        0.1035
      7 C         139.1527  139.1952  161.4172 C.3     1  UNL1        0.1470
      8 C         138.3250  139.9091  162.4445 C.3     1  UNL1        0.1035
      9 O         139.8077  139.9694  160.3119 O.3     1  UNL1       -0.3530
     10 C         137.3245  142.1109  163.3937 C.3     1  UNL1        0.0989
     11 C         137.9834  143.0211  164.3873 C.3     1  UNL1        0.1443
     12 C         143.0504  144.4642  164.0361 C.3     1  UNL1        0.0540
     13 C         141.8064  143.6916  164.3608 C.ar    1  UNL1        0.0801
     14 C         141.7461  142.3871  165.0989 C.ar    1  UNL1        0.0308
     15 C         140.3066  141.9772  165.1987 C.ar    1  UNL1        0.0572
     16 C         139.7875  140.7344  165.8589 C.3     1  UNL1        0.0517
     17 N         139.4774  143.0283  164.5222 N.ar    1  UNL1       -0.2538
     18 N         140.4043  144.0879  164.0044 N.ar    1  UNL1       -0.1739
     19 C         141.4632  138.5417  158.2574 C.3     1  UNL1        0.0913
     20 C         142.8362  138.0509  158.6096 C.3     1  UNL1        0.1087
     21 N         143.7508  138.9083  159.4332 N.3     1  UNL1       -0.1780
     22 H         143.6178  139.8689  159.1171 H       1  UNL1        0.1488
     23 S         143.6218  138.9224  160.9275 S.O2    1  UNL1        0.0603
     24 O         143.5921  140.4220  160.9108 O.2     1  UNL1       -0.1530
     25 O         143.6515  137.4228  160.9442 O.2     1  UNL1       -0.1530
     26 C         143.4929  138.9365  162.4219 C.ar    1  UNL1        0.1220
     27 C         144.4745  139.7092  163.2522 C.ar    1  UNL1        0.0206
     28 C         144.3456  139.7233  164.7465 C.ar    1  UNL1        0.0116
     29 C         143.2351  138.9646  165.4106 C.ar    1  UNL1        0.0685
     30 C         142.2535  138.1919  164.5804 C.ar    1  UNL1        0.0116
     31 C         142.3824  138.1778  163.0861 C.ar    1  UNL1        0.0206
     32 C         143.1061  138.9787  166.9051 C.1     1  UNL1        0.1004
     33 N         142.9773  138.9927  168.3994 N.1     1  UNL1       -0.1908
@<TRIPOS>BOND
     1    12    13    1
     2    13    14   ar
     3    14    15   ar
     4    15    16    1
     5    15    17   ar
     6    17    11    1
     7    11    10    1
     8    10     1    1
     9     1     2    1
    10     2     3    1
    11     3     4    1
    12     4     5    1
    13     5    19    1
    14    19    20    1
    15    20    21    1
    16    21    23    1
    17    23    24    2
    18    23    25    2
    19    23    26    1
    20    26    27   ar
    21    27    28   ar
    22    28    29   ar
    23    29    32    1
    24    32    33    3
    25    29    30   ar
    26    30    31   ar
    27     5     6    1
    28     6     7    1
    29     7     8    1
    30     7     9    1
    31    17    18   ar
    32    18    13   ar
    33     8     1    1
    34     9     3    1
    35    31    26   ar
    36    21    22    1
@<TRIPOS>MOLECULE
*****
 33 36 0 0 0
SMALL
GASTEIGER

@<TRIPOS>ATOM
      1 N         138.9667  144.1106  163.0303 N.3     1  UNL1       -0.2668
      2 C         139.6568  143.8408  164.3345 C.3     1  UNL1        0.1035
      3 C         139.5235  142.4982  164.9898 C.3     1  UNL1        0.1470
      4 C         139.3903  141.1554  165.6452 C.3     1  UNL1        0.1035
      5 N         138.5670  140.0826  164.9962 N.3     1  UNL1       -0.2673
      6 C         137.8769  140.3524  163.6919 C.3     1  UNL1        0.1035
      7 C         138.0102  141.6951  163.0367 C.3     1  UNL1        0.1470
      8 C         138.1435  143.0377  162.3814 C.3     1  UNL1        0.1035
      9 O         138.7002  141.4253  164.3409 O.3     1  UNL1       -0.3530
     10 C         139.1000  145.4534  162.3750 C.3     1  UNL1        0.0989
     11 C         140.4086  145.8654  161.7687 C.3     1  UNL1        0.1443
     12 C         144.5624  142.6677  161.1357 C.3     1  UNL1        0.0540
     13 C         143.2475  143.3573  160.9229 C.ar    1  UNL1        0.0801
     14 C         142.2898  143.1014  159.7971 C.ar    1  UNL1        0.0308
     15 C         141.1097  144.0098  159.9769 C.ar    1  UNL1        0.0572
     16 C         139.9116  144.0873  159.0778 C.3     1  UNL1        0.0517
     17 N         141.3382  144.8271  161.2138 N.ar    1  UNL1       -0.2538
     18 N         142.6594  144.4238  161.7984 N.ar    1  UNL1       -0.1739
     19 C         138.4337  138.7399  165.6515 C.3     1  UNL1        0.0913
     20 C         138.9800  137.5176  164.9750 C.3     1  UNL1        0.1087
     21 N         140.4621  137.3437  164.8231 N.3     1  UNL1       -0.1780
     22 H         140.6477  136.3420  164.8735 H       1  UNL1        0.1488
     23 S         141.1546  137.8511  163.5932 S.O2    1  UNL1        0.0603
     24 O         142.2188  138.4722  164.4486 O.2     1  UNL1       -0.1530
     25 O         140.0904  137.2301  162.7378 O.2     1  UNL1       -0.1530
     26 C         141.8472  138.3586  162.3631 C.ar    1  UNL1        0.1220
     27 C         141.0541  139.0185  161.2742 C.ar    1  UNL1        0.0206
     28 C         141.7465  139.5259  160.0442 C.ar    1  UNL1        0.0116
     29 C         143.2320  139.3735  159.9031 C.ar    1  UNL1        0.0685
     30 C         144.0251  138.7136  160.9919 C.ar    1  UNL1        0.0116
     31 C         143.3327  138.2062  162.2219 C.ar    1  UNL1        0.0206
     32 C         143.9245  139.8810  158.6730 C.1     1  UNL1        0.1004
     33 N         144.6171  140.3884  157.4430 N.1     1  UNL1       -0.1908
@<TRIPOS>BOND
     1    12    13    1
     2    13    14   ar
     3    14    15   ar
     4    15    16    1
     5    15    17   ar
     6    17    11    1
     7    11    10    1
     8    10     1    1
     9     1     2    1
    10     2     3    1
    11     3     4    1
    12     4     5    1
    13     5    19    1
    14    19    20    1
    15    20    21    1
    16    21    23    1
    17    23    24    2
    18    23    25    2
    19    23    26    1
    20    26    27   ar
    21    27    28   ar
    22    28    29   ar
    23    29    32    1
    24    32    33    3
    25    29    30   ar
    26    30    31   ar
    27     5     6    1
    28     6     7    1
    29     7     8    1
    30     7     9    1
    31    17    18   ar
    32    18    13   ar
    33     8     1    1
    34     9     3    1
    35    31    26   ar
    36    21    22    1
@<TRIPOS>MOLECULE
*****
 33 36 0 0 0
SMALL
GASTEIGER

@<TRIPOS>ATOM
      1 N         143.4629  143.4110  161.6561 N.3     1  UNL1       -0.2668
      2 C         142.2753  143.8433  160.8484 C.3     1  UNL1        0.1035
      3 C         141.5545  142.8513  159.9845 C.3     1  UNL1        0.1470
      4 C         140.8336  141.8593  159.1207 C.3     1  UNL1        0.1035
      5 N         141.3004  140.4349  159.0646 N.3     1  UNL1       -0.2673
      6 C         142.4881  140.0025  159.8724 C.3     1  UNL1        0.1035
      7 C         143.2090  140.9945  160.7362 C.3     1  UNL1        0.1470
      8 C         143.9298  141.9866  161.6000 C.3     1  UNL1        0.1035
      9 O         142.0213  141.4269  159.9284 O.3     1  UNL1       -0.3530
     10 C         144.1838  144.4030  162.5200 C.3     1  UNL1        0.0989
     11 C         143.7757  144.5870  163.9516 C.3     1  UNL1        0.1443
     12 C         138.5588  144.3720  164.7377 C.3     1  UNL1        0.0540
     13 C         140.0211  144.0397  164.7696 C.ar    1  UNL1        0.0801
     14 C         140.6419  142.8572  165.4526 C.ar    1  UNL1        0.0308
     15 C         142.1240  142.9183  165.2292 C.ar    1  UNL1        0.0572
     16 C         143.1336  141.9323  165.7376 C.3     1  UNL1        0.0517
     17 N         142.4190  144.1386  164.4083 N.ar    1  UNL1       -0.2538
     18 N         141.1194  144.8316  164.1242 N.ar    1  UNL1       -0.1739
     19 C         140.5796  139.4428  158.2007 C.3     1  UNL1        0.0913
     20 C         139.5449  138.5378  158.8011 C.3     1  UNL1        0.1087
     21 N         138.3857  139.1197  159.5545 N.3     1  UNL1       -0.1780
     22 H         137.5609  138.5829  159.2863 H       1  UNL1        0.1488
     23 S         138.4088  139.1579  161.0538 S.O2    1  UNL1        0.0603
     24 O         137.5784  140.4068  161.0348 O.2     1  UNL1       -0.1530
     25 O         139.2392  137.9089  161.0728 O.2     1  UNL1       -0.1530
     26 C         138.4320  139.1960  162.5532 C.ar    1  UNL1        0.1220
     27 C         138.8356  137.9768  163.3283 C.ar    1  UNL1        0.0206
     28 C         138.8588  138.0149  164.8276 C.ar    1  UNL1        0.0116
     29 C         138.4783  139.2721  165.5518 C.ar    1  UNL1        0.0685
     30 C         138.0746  140.4913  164.7767 C.ar    1  UNL1        0.0116
     31 C         138.0514  140.4532  163.2774 C.ar    1  UNL1        0.0206
     32 C         138.5014  139.3103  167.0512 C.1     1  UNL1        0.1004
     33 N         138.5245  139.3484  168.5505 N.1     1  UNL1       -0.1908
@<TRIPOS>BOND
     1    12    13    1
     2    13    14   ar
     3    14    15   ar
     4    15    16    1
     5    15    17   ar
     6    17    11    1
     7    11    10    1
     8    10     1    1
     9     1     2    1
    10     2     3    1
    11     3     4    1
    12     4     5    1
    13     5    19    1
    14    19    20    1
    15    20    21    1
    16    21    23    1
    17    23    24    2
    18    23    25    2
    19    23    26    1
    20    26    27   ar
    21    27    28   ar
    22    28    29   ar
    23    29    32    1
    24    32    33    3
    25    29    30   ar
    26    30    31   ar
    27     5     6    1
    28     6     7    1
    29     7     8    1
    30     7     9    1
    31    17    18   ar
    32    18    13   ar
    33     8     1    1
    34     9     3    1
    35    31    26   ar
    36    21    22    1
