@<TRIPOS>MOLECULE
*****
 39 42 0 0 0
SMALL
GASTEIGER

@<TRIPOS>ATOM
      1 C         142.8630  138.5961  157.5282 C.2     1  UNL1       -0.0078
      2 C         143.6854  139.6722  156.8834 C.2     1  UNL1       -0.0414
      3 C         144.1403  139.5184  155.4623 C.3     1  UNL1        0.0394
      4 C         144.9627  140.5945  154.8175 C.3     1  UNL1        0.0767
      5 N         145.3302  141.8243  155.5937 N.3     1  UNL1       -0.2683
      6 C         144.8753  141.9780  157.0148 C.3     1  UNL1        0.0767
      7 C         144.0529  140.9020  157.6596 C.3     1  UNL1        0.0394
      8 C         141.4984  139.0574  161.7915 C.ar    1  UNL1        0.0536
      9 C         142.5082  138.0065  161.4367 C.ar    1  UNL1        0.0045
     10 C         142.9630  137.8527  160.0156 C.ar    1  UNL1        0.0001
     11 C         142.4082  138.7499  158.9493 C.ar    1  UNL1       -0.0006
     12 C         141.3984  139.8008  159.3040 C.ar    1  UNL1        0.0001
     13 C         140.9435  139.9546  160.7251 C.ar    1  UNL1        0.0045
     14 N         139.7859  138.5368  163.6746 N.am    1  UNL1       -0.2761
     15 C         141.0435  139.2112  163.2125 C.2     1  UNL1        0.2490
     16 O         141.8463  140.0393  164.1715 O.2     1  UNL1       -0.2699
     17 C         138.3004  139.7227  165.4457 C.3     1  UNL1        0.0233
     18 C         139.3310  138.6905  165.0957 C.3     1  UNL1        0.0938
     19 C         138.9831  137.7085  162.7156 C.3     1  UNL1        0.0938
     20 C         137.8806  138.3411  161.9191 C.3     1  UNL1        0.0233
     21 C         142.4955  137.3664  156.7520 C.ar    1  UNL1        0.0006
     22 C         141.1346  137.2496  156.1319 C.ar    1  UNL1        0.0001
     23 C         140.7672  136.0199  155.3557 C.ar    1  UNL1        0.0013
     24 C         141.7605  134.9068  155.1995 C.ar    1  UNL1        0.0147
     25 C         143.1213  135.0235  155.8195 C.ar    1  UNL1        0.0503
     26 C         143.4889  136.2533  156.5958 C.ar    1  UNL1        0.0147
     27 N         144.1146  133.9105  155.6633 N.am    1  UNL1       -0.2839
     28 C         143.8890  132.6007  156.3587 C.2     1  UNL1        0.2266
     29 C         144.8823  131.4877  156.2024 C.3     1  UNL1        0.0949
     30 O         142.6699  132.4040  157.2103 O.2     1  UNL1       -0.2748
     31 H         144.9147  134.0396  155.1043 H       1  UNL1        0.1549
     32 C         146.1526  142.9004  154.9489 C.3     1  UNL1        0.0992
     33 C         147.6110  142.6718  154.6829 C.ar    1  UNL1       -0.0060
     34 C         148.2540  143.2685  153.4661 C.ar    1  UNL1       -0.0006
     35 C         149.7124  143.0400  153.2001 C.ar    1  UNL1        0.0294
     36 C         150.5279  142.2147  154.1510 C.ar    1  UNL1        0.1401
     37 F         151.9863  141.9861  153.8850 F       1  UNL1       -0.2042
     38 C         149.8849  141.6180  155.3677 C.ar    1  UNL1        0.0294
     39 C         148.4265  141.8466  155.6337 C.ar    1  UNL1       -0.0006
@<TRIPOS>BOND
     1    17    18    1
     2    18    14    1
     3    14    19    1
     4    19    20    1
     5    14    15   am
     6    15    16    2
     7    15     8    1
     8     8     9   ar
     9     9    10   ar
    10    10    11   ar
    11    11     1    1
    12     1     2    2
    13     2     3    1
    14     3     4    1
    15     4     5    1
    16     5    32    1
    17    32    33    1
    18    33    34   ar
    19    34    35   ar
    20    35    36   ar
    21    36    37    1
    22    36    38   ar
    23    38    39   ar
    24     5     6    1
    25     6     7    1
    26     1    21    1
    27    21    22   ar
    28    22    23   ar
    29    23    24   ar
    30    24    25   ar
    31    25    27    1
    32    27    28   am
    33    28    29    1
    34    28    30    2
    35    25    26   ar
    36    11    12   ar
    37    12    13   ar
    38    13     8   ar
    39     7     2    1
    40    26    21   ar
    41    39    33   ar
    42    27    31    1
@<TRIPOS>MOLECULE
*****
 39 42 0 0 0
SMALL
GASTEIGER

@<TRIPOS>ATOM
      1 C         138.1611  142.2644  156.6084 C.2     1  UNL1       -0.0078
      2 C         138.4662  142.0113  158.0551 C.2     1  UNL1       -0.0414
      3 C         137.9720  140.7597  158.7180 C.3     1  UNL1        0.0394
      4 C         138.2772  140.5066  160.1647 C.3     1  UNL1        0.0767
      5 N         139.0764  141.5050  160.9484 N.3     1  UNL1       -0.2683
      6 C         139.5706  142.7566  160.2855 C.3     1  UNL1        0.0767
      7 C         139.2655  143.0097  158.8389 C.3     1  UNL1        0.0394
      8 C         139.6436  146.0190  154.6198 C.ar    1  UNL1        0.0536
      9 C         138.1735  145.8158  154.8372 C.ar    1  UNL1        0.0045
     10 C         137.6793  144.5643  155.5001 C.ar    1  UNL1        0.0001
     11 C         138.6553  143.5159  155.9455 C.ar    1  UNL1       -0.0006
     12 C         140.1254  143.7192  155.7281 C.ar    1  UNL1        0.0001
     13 C         140.6196  144.9707  155.0652 C.ar    1  UNL1        0.0045
     14 N         139.7202  148.6123  154.4816 N.am    1  UNL1       -0.2761
     15 C         140.1378  147.2706  153.9569 C.2     1  UNL1        0.2490
     16 O         141.0495  147.1804  152.7692 O.2     1  UNL1       -0.2699
     17 C         139.5401  150.3723  152.5789 C.3     1  UNL1        0.0233
     18 C         140.2143  149.8638  153.8187 C.3     1  UNL1        0.0938
     19 C         138.8084  148.7025  155.6693 C.3     1  UNL1        0.0938
     20 C         138.4106  150.0442  156.2093 C.3     1  UNL1        0.0233
     21 C         137.3619  141.2660  155.8247 C.ar    1  UNL1        0.0006
     22 C         138.0578  140.2903  154.9225 C.ar    1  UNL1        0.0001
     23 C         137.2585  139.2919  154.1388 C.ar    1  UNL1        0.0013
     24 C         135.7634  139.2690  154.2571 C.ar    1  UNL1        0.0147
     25 C         135.0675  140.2446  155.1593 C.ar    1  UNL1        0.0503
     26 C         135.8667  141.2431  155.9431 C.ar    1  UNL1        0.0147
     27 N         133.5723  140.2218  155.2777 N.am    1  UNL1       -0.2839
     28 C         132.9274  139.7336  156.5408 C.2     1  UNL1        0.2266
     29 C         131.4322  139.7107  156.6592 C.3     1  UNL1        0.0949
     30 O         133.7776  139.2681  157.6856 O.2     1  UNL1       -0.2748
     31 H         133.0143  140.5273  154.5263 H       1  UNL1        0.1549
     32 C         139.3816  141.2519  162.3951 C.3     1  UNL1        0.0992
     33 C         139.1434  142.3292  163.4114 C.ar    1  UNL1       -0.0060
     34 C         140.2399  142.7255  164.3552 C.ar    1  UNL1       -0.0006
     35 C         140.0018  143.8028  165.3715 C.ar    1  UNL1        0.0294
     36 C         138.6671  144.4836  165.4441 C.ar    1  UNL1        0.1401
     37 F         138.4290  145.5609  166.4604 F       1  UNL1       -0.2042
     38 C         137.5707  144.0873  164.5003 C.ar    1  UNL1        0.0294
     39 C         137.8089  143.0100  163.4840 C.ar    1  UNL1       -0.0006
@<TRIPOS>BOND
     1    17    18    1
     2    18    14    1
     3    14    19    1
     4    19    20    1
     5    14    15   am
     6    15    16    2
     7    15     8    1
     8     8     9   ar
     9     9    10   ar
    10    10    11   ar
    11    11     1    1
    12     1     2    2
    13     2     3    1
    14     3     4    1
    15     4     5    1
    16     5    32    1
    17    32    33    1
    18    33    34   ar
    19    34    35   ar
    20    35    36   ar
    21    36    37    1
    22    36    38   ar
    23    38    39   ar
    24     5     6    1
    25     6     7    1
    26     1    21    1
    27    21    22   ar
    28    22    23   ar
    29    23    24   ar
    30    24    25   ar
    31    25    27    1
    32    27    28   am
    33    28    29    1
    34    28    30    2
    35    25    26   ar
    36    11    12   ar
    37    12    13   ar
    38    13     8   ar
    39     7     2    1
    40    26    21   ar
    41    39    33   ar
    42    27    31    1
@<TRIPOS>MOLECULE
*****
 39 42 0 0 0
SMALL
GASTEIGER

@<TRIPOS>ATOM
      1 C         138.6330  141.8071  156.7023 C.2     1  UNL1       -0.0078
      2 C         139.1398  143.0491  156.0312 C.2     1  UNL1       -0.0414
      3 C         138.5973  143.4528  154.6923 C.3     1  UNL1        0.0394
      4 C         139.1042  144.6948  154.0211 C.3     1  UNL1        0.0767
      5 N         140.1535  145.5332  154.6889 N.3     1  UNL1       -0.2683
      6 C         140.6961  145.1295  156.0278 C.3     1  UNL1        0.0767
      7 C         140.1893  143.8875  156.6990 C.3     1  UNL1        0.0394
      8 C         140.2607  140.5960  160.7191 C.ar    1  UNL1        0.0536
      9 C         140.9357  140.1277  159.4641 C.ar    1  UNL1        0.0045
     10 C         140.3931  140.5314  158.1252 C.ar    1  UNL1        0.0001
     11 C         139.1756  141.4034  158.0412 C.ar    1  UNL1       -0.0006
     12 C         138.5005  141.8717  159.2962 C.ar    1  UNL1        0.0001
     13 C         139.0431  141.4680  160.6351 C.ar    1  UNL1        0.0045
     14 N         140.4124  138.8750  162.6594 N.am    1  UNL1       -0.2761
     15 C         140.8032  140.1923  162.0580 C.2     1  UNL1        0.2490
     16 O         141.7366  141.1060  162.7955 O.2     1  UNL1       -0.2699
     17 C         141.2273  137.0258  164.2924 C.3     1  UNL1        0.0233
     18 C         140.9550  138.4713  163.9983 C.3     1  UNL1        0.0938
     19 C         139.4790  137.9612  161.9219 C.3     1  UNL1        0.0938
     20 C         137.9956  138.1214  162.0754 C.3     1  UNL1        0.0233
     21 C         137.5836  140.9687  156.0346 C.ar    1  UNL1        0.0006
     22 C         137.9847  139.8990  155.0625 C.ar    1  UNL1        0.0001
     23 C         136.9353  139.0606  154.3948 C.ar    1  UNL1        0.0013
     24 C         135.4848  139.2920  154.6990 C.ar    1  UNL1        0.0147
     25 C         135.0837  140.3617  155.6710 C.ar    1  UNL1        0.0503
     26 C         136.1331  141.2001  156.3388 C.ar    1  UNL1        0.0147
     27 N         133.6332  140.5931  155.9752 N.am    1  UNL1       -0.2839
     28 C         132.9218  139.7075  156.9547 C.2     1  UNL1        0.2266
     29 C         131.4713  139.9389  157.2590 C.3     1  UNL1        0.0949
     30 O         133.6609  138.5905  157.6302 O.2     1  UNL1       -0.2748
     31 H         133.1482  141.3262  155.5319 H       1  UNL1        0.1549
     32 C         140.6604  146.7753  154.0177 C.3     1  UNL1        0.0992
     33 C         140.0342  148.1030  154.3258 C.ar    1  UNL1       -0.0060
     34 C         139.0928  148.2371  155.4860 C.ar    1  UNL1       -0.0006
     35 C         138.4666  149.5649  155.7941 C.ar    1  UNL1        0.0294
     36 C         138.7818  150.7585  154.9420 C.ar    1  UNL1        0.1401
     37 F         138.1556  152.0863  155.2501 F       1  UNL1       -0.2042
     38 C         139.7231  150.6244  153.7819 C.ar    1  UNL1        0.0294
     39 C         140.3494  149.2966  153.4739 C.ar    1  UNL1       -0.0006
@<TRIPOS>BOND
     1    17    18    1
     2    18    14    1
     3    14    19    1
     4    19    20    1
     5    14    15   am
     6    15    16    2
     7    15     8    1
     8     8     9   ar
     9     9    10   ar
    10    10    11   ar
    11    11     1    1
    12     1     2    2
    13     2     3    1
    14     3     4    1
    15     4     5    1
    16     5    32    1
    17    32    33    1
    18    33    34   ar
    19    34    35   ar
    20    35    36   ar
    21    36    37    1
    22    36    38   ar
    23    38    39   ar
    24     5     6    1
    25     6     7    1
    26     1    21    1
    27    21    22   ar
    28    22    23   ar
    29    23    24   ar
    30    24    25   ar
    31    25    27    1
    32    27    28   am
    33    28    29    1
    34    28    30    2
    35    25    26   ar
    36    11    12   ar
    37    12    13   ar
    38    13     8   ar
    39     7     2    1
    40    26    21   ar
    41    39    33   ar
    42    27    31    1
@<TRIPOS>MOLECULE
*****
 39 42 0 0 0
SMALL
GASTEIGER

@<TRIPOS>ATOM
      1 C         139.6849  140.6050  158.3297 C.2     1  UNL1       -0.0078
      2 C         140.6317  139.6025  157.7394 C.2     1  UNL1       -0.0414
      3 C         140.9518  139.6452  156.2746 C.3     1  UNL1        0.0394
      4 C         141.8986  138.6425  155.6843 C.3     1  UNL1        0.0767
      5 N         142.5252  137.5973  156.5588 N.3     1  UNL1       -0.2683
      6 C         142.2051  137.5546  158.0236 C.3     1  UNL1        0.0767
      7 C         141.2584  138.5572  158.6139 C.3     1  UNL1        0.0394
      8 C         138.7245  140.4769  162.7242 C.ar    1  UNL1        0.0536
      9 C         139.9989  141.1125  162.2532 C.ar    1  UNL1        0.0045
     10 C         140.3191  141.1552  160.7884 C.ar    1  UNL1        0.0001
     11 C         139.3648  140.5623  159.7946 C.ar    1  UNL1       -0.0006
     12 C         138.0904  139.9267  160.2655 C.ar    1  UNL1        0.0001
     13 C         137.7703  139.8840  161.7304 C.ar    1  UNL1        0.0045
     14 N         138.5489  139.1504  164.9512 N.am    1  UNL1       -0.2761
     15 C         138.4044  140.4342  164.1890 C.2     1  UNL1        0.2490
     16 O         137.9398  141.6753  164.8917 O.2     1  UNL1       -0.2699
     17 C         137.5015  137.9283  166.9907 C.3     1  UNL1        0.0233
     18 C         138.2287  139.1077  166.4160 C.3     1  UNL1        0.0938
     19 C         139.0135  137.9092  164.2485 C.3     1  UNL1        0.0938
     20 C         140.4570  137.5069  164.3126 C.3     1  UNL1        0.0233
     21 C         139.0583  141.6502  157.4553 C.ar    1  UNL1        0.0006
     22 C         139.8276  142.8867  157.0954 C.ar    1  UNL1        0.0001
     23 C         139.2010  143.9319  156.2209 C.ar    1  UNL1        0.0013
     24 C         137.8051  143.7408  155.7062 C.ar    1  UNL1        0.0147
     25 C         137.0358  142.5044  156.0661 C.ar    1  UNL1        0.0503
     26 C         137.6624  141.4591  156.9406 C.ar    1  UNL1        0.0147
     27 N         135.6398  142.3133  155.5515 N.am    1  UNL1       -0.2839
     28 C         135.4079  141.5644  154.2727 C.2     1  UNL1        0.2266
     29 C         134.0120  141.3733  153.7581 C.3     1  UNL1        0.0949
     30 O         136.5719  141.0065  153.5085 O.2     1  UNL1       -0.2748
     31 H         134.8759  142.6795  156.0530 H       1  UNL1        0.1549
     32 C         143.4720  136.5947  155.9684 C.3     1  UNL1        0.0992
     33 C         143.1245  135.1356  155.9835 C.ar    1  UNL1       -0.0060
     34 C         142.2588  134.5596  154.9024 C.ar    1  UNL1       -0.0006
     35 C         141.9113  133.1005  154.9175 C.ar    1  UNL1        0.0294
     36 C         142.4295  132.2174  156.0137 C.ar    1  UNL1        0.1401
     37 F         142.0820  130.7582  156.0288 F       1  UNL1       -0.2042
     38 C         143.2952  132.7934  157.0948 C.ar    1  UNL1        0.0294
     39 C         143.6427  134.2525  157.0797 C.ar    1  UNL1       -0.0006
@<TRIPOS>BOND
     1    17    18    1
     2    18    14    1
     3    14    19    1
     4    19    20    1
     5    14    15   am
     6    15    16    2
     7    15     8    1
     8     8     9   ar
     9     9    10   ar
    10    10    11   ar
    11    11     1    1
    12     1     2    2
    13     2     3    1
    14     3     4    1
    15     4     5    1
    16     5    32    1
    17    32    33    1
    18    33    34   ar
    19    34    35   ar
    20    35    36   ar
    21    36    37    1
    22    36    38   ar
    23    38    39   ar
    24     5     6    1
    25     6     7    1
    26     1    21    1
    27    21    22   ar
    28    22    23   ar
    29    23    24   ar
    30    24    25   ar
    31    25    27    1
    32    27    28   am
    33    28    29    1
    34    28    30    2
    35    25    26   ar
    36    11    12   ar
    37    12    13   ar
    38    13     8   ar
    39     7     2    1
    40    26    21   ar
    41    39    33   ar
    42    27    31    1
@<TRIPOS>MOLECULE
*****
 39 42 0 0 0
SMALL
GASTEIGER

@<TRIPOS>ATOM
      1 C         143.2387  138.8683  157.1117 C.2     1  UNL1       -0.0078
      2 C         143.1957  138.8922  158.6109 C.2     1  UNL1       -0.0414
      3 C         143.6469  140.1141  159.3547 C.3     1  UNL1        0.0394
      4 C         143.6039  140.1380  160.8539 C.3     1  UNL1        0.0767
      5 N         143.1097  138.9401  161.6093 N.3     1  UNL1       -0.2683
      6 C         142.6585  137.7181  160.8654 C.3     1  UNL1        0.0767
      7 C         142.7015  137.6942  159.3663 C.3     1  UNL1        0.0394
      8 C         141.8850  135.2025  154.8802 C.ar    1  UNL1        0.0536
      9 C         143.3494  135.4876  155.0360 C.ar    1  UNL1        0.0045
     10 C         143.8006  136.7095  155.7798 C.ar    1  UNL1        0.0001
     11 C         142.7875  137.6463  156.3679 C.ar    1  UNL1       -0.0006
     12 C         141.3231  137.3612  156.2121 C.ar    1  UNL1        0.0001
     13 C         140.8719  136.1393  155.4683 C.ar    1  UNL1        0.0045
     14 N         141.5968  132.6235  154.7543 N.am    1  UNL1       -0.2761
     15 C         141.4338  133.9806  154.1364 C.2     1  UNL1        0.2490
     16 O         140.8196  134.1157  152.7746 O.2     1  UNL1       -0.2699
     17 C         139.9263  130.6549  154.4644 C.3     1  UNL1        0.0233
     18 C         141.1455  131.4016  154.0105 C.3     1  UNL1        0.0938
     19 C         142.2110  132.4884  156.1161 C.3     1  UNL1        0.0938
     20 C         143.5811  131.8965  156.2655 C.3     1  UNL1        0.0233
     21 C         143.7329  140.0662  156.3564 C.ar    1  UNL1        0.0006
     22 C         142.8085  141.2163  156.0861 C.ar    1  UNL1        0.0001
     23 C         143.3027  142.4143  155.3308 C.ar    1  UNL1        0.0013
     24 C         144.7213  142.4623  154.8457 C.ar    1  UNL1        0.0147
     25 C         145.6457  141.3123  155.1159 C.ar    1  UNL1        0.0503
     26 C         145.1515  140.1143  155.8713 C.ar    1  UNL1        0.0147
     27 N         147.0643  141.3603  154.6309 N.am    1  UNL1       -0.2839
     28 C         148.1356  141.9452  155.5026 C.2     1  UNL1        0.2266
     29 C         149.5542  141.9932  155.0176 C.3     1  UNL1        0.0949
     30 O         147.7884  142.4821  156.8596 O.2     1  UNL1       -0.2748
     31 H         147.2922  141.0080  153.7403 H       1  UNL1        0.1549
     32 C         143.0667  138.9640  163.1085 C.3     1  UNL1        0.0992
     33 C         141.7467  138.9657  163.8210 C.ar    1  UNL1       -0.0060
     34 C         141.1030  137.6679  164.2104 C.ar    1  UNL1       -0.0006
     35 C         139.7830  137.6696  164.9228 C.ar    1  UNL1        0.0294
     36 C         139.1068  138.9690  165.2460 C.ar    1  UNL1        0.1401
     37 F         137.7868  138.9707  165.9585 F       1  UNL1       -0.2042
     38 C         139.7505  140.2666  164.8566 C.ar    1  UNL1        0.0294
     39 C         141.0705  140.2650  164.1441 C.ar    1  UNL1       -0.0006
@<TRIPOS>BOND
     1    17    18    1
     2    18    14    1
     3    14    19    1
     4    19    20    1
     5    14    15   am
     6    15    16    2
     7    15     8    1
     8     8     9   ar
     9     9    10   ar
    10    10    11   ar
    11    11     1    1
    12     1     2    2
    13     2     3    1
    14     3     4    1
    15     4     5    1
    16     5    32    1
    17    32    33    1
    18    33    34   ar
    19    34    35   ar
    20    35    36   ar
    21    36    37    1
    22    36    38   ar
    23    38    39   ar
    24     5     6    1
    25     6     7    1
    26     1    21    1
    27    21    22   ar
    28    22    23   ar
    29    23    24   ar
    30    24    25   ar
    31    25    27    1
    32    27    28   am
    33    28    29    1
    34    28    30    2
    35    25    26   ar
    36    11    12   ar
    37    12    13   ar
    38    13     8   ar
    39     7     2    1
    40    26    21   ar
    41    39    33   ar
    42    27    31    1
@<TRIPOS>MOLECULE
*****
 39 42 0 0 0
SMALL
GASTEIGER

@<TRIPOS>ATOM
      1 C         139.1903  140.5440  158.0822 C.2     1  UNL1       -0.0078
      2 C         140.1509  139.5743  157.4602 C.2     1  UNL1       -0.0414
      3 C         140.3609  139.5750  155.9749 C.3     1  UNL1        0.0394
      4 C         141.3216  138.6052  155.3529 C.3     1  UNL1        0.0767
      5 N         142.0721  137.6349  156.2160 N.3     1  UNL1       -0.2683
      6 C         141.8621  137.6342  157.7013 C.3     1  UNL1        0.0767
      7 C         140.9015  138.6039  158.3233 C.3     1  UNL1        0.0394
      8 C         138.5603  140.5420  162.5379 C.ar    1  UNL1        0.0536
      9 C         139.7705  141.2067  161.9519 C.ar    1  UNL1        0.0045
     10 C         139.9806  141.2073  160.4666 C.ar    1  UNL1        0.0001
     11 C         138.9803  140.5433  159.5674 C.ar    1  UNL1       -0.0006
     12 C         137.7701  139.8786  160.1535 C.ar    1  UNL1        0.0001
     13 C         137.5601  139.8780  161.6387 C.ar    1  UNL1        0.0045
     14 N         138.6288  139.3011  164.8194 N.am    1  UNL1       -0.2761
     15 C         138.3503  140.5413  164.0231 C.2     1  UNL1        0.2490
     16 O         137.8618  141.7809  164.7121 O.2     1  UNL1       -0.2699
     17 C         137.5878  138.2277  166.9441 C.3     1  UNL1        0.0233
     18 C         138.4188  139.3004  166.3046 C.3     1  UNL1        0.0938
     19 C         139.1174  138.0614  164.1305 C.3     1  UNL1        0.0938
     20 C         140.5032  137.5526  164.3958 C.3     1  UNL1        0.0233
     21 C         138.4398  141.5143  157.2191 C.ar    1  UNL1        0.0006
     22 C         137.0996  141.1391  156.6593 C.ar    1  UNL1        0.0001
     23 C         136.3491  142.1094  155.7961 C.ar    1  UNL1        0.0013
     24 C         136.9386  143.4549  155.4927 C.ar    1  UNL1        0.0147
     25 C         138.2787  143.8301  156.0524 C.ar    1  UNL1        0.0503
     26 C         139.0293  142.8598  156.9157 C.ar    1  UNL1        0.0147
     27 N         138.8682  145.1757  155.7490 N.am    1  UNL1       -0.2839
     28 C         139.7924  145.3431  154.5795 C.2     1  UNL1        0.2266
     29 C         140.3819  146.6886  154.2761 C.3     1  UNL1        0.0949
     30 O         140.1271  144.1651  153.7133 O.2     1  UNL1       -0.2748
     31 H         138.6485  145.9488  156.3175 H       1  UNL1        0.1549
     32 C         143.0328  136.6652  155.5940 C.3     1  UNL1        0.0992
     33 C         142.8703  135.1928  155.8300 C.ar    1  UNL1       -0.0060
     34 C         143.7287  134.4966  156.8441 C.ar    1  UNL1       -0.0006
     35 C         143.5663  133.0242  157.0801 C.ar    1  UNL1        0.0294
     36 C         142.5455  132.2480  156.3019 C.ar    1  UNL1        0.1401
     37 F         142.3830  130.7756  156.5379 F       1  UNL1       -0.2042
     38 C         141.6871  132.9442  155.2878 C.ar    1  UNL1        0.0294
     39 C         141.8495  134.4166  155.0518 C.ar    1  UNL1       -0.0006
@<TRIPOS>BOND
     1    17    18    1
     2    18    14    1
     3    14    19    1
     4    19    20    1
     5    14    15   am
     6    15    16    2
     7    15     8    1
     8     8     9   ar
     9     9    10   ar
    10    10    11   ar
    11    11     1    1
    12     1     2    2
    13     2     3    1
    14     3     4    1
    15     4     5    1
    16     5    32    1
    17    32    33    1
    18    33    34   ar
    19    34    35   ar
    20    35    36   ar
    21    36    37    1
    22    36    38   ar
    23    38    39   ar
    24     5     6    1
    25     6     7    1
    26     1    21    1
    27    21    22   ar
    28    22    23   ar
    29    23    24   ar
    30    24    25   ar
    31    25    27    1
    32    27    28   am
    33    28    29    1
    34    28    30    2
    35    25    26   ar
    36    11    12   ar
    37    12    13   ar
    38    13     8   ar
    39     7     2    1
    40    26    21   ar
    41    39    33   ar
    42    27    31    1
@<TRIPOS>MOLECULE
*****
 39 42 0 0 0
SMALL
GASTEIGER

@<TRIPOS>ATOM
      1 C         140.4877  139.5105  157.8294 C.2     1  UNL1       -0.0078
      2 C         139.2064  139.8671  157.1358 C.2     1  UNL1       -0.0414
      3 C         138.9752  139.4343  155.7183 C.3     1  UNL1        0.0394
      4 C         137.6939  139.7910  155.0248 C.3     1  UNL1        0.0767
      5 N         136.6438  140.5805  155.7486 N.3     1  UNL1       -0.2683
      6 C         136.8750  141.0133  157.1661 C.3     1  UNL1        0.0767
      7 C         138.1563  140.6566  157.8597 C.3     1  UNL1        0.0394
      8 C         141.1813  140.8089  162.0818 C.ar    1  UNL1        0.0536
      9 C         140.5202  139.4927  161.7979 C.ar    1  UNL1        0.0045
     10 C         140.2890  139.0599  160.3804 C.ar    1  UNL1        0.0001
     11 C         140.7189  139.9433  159.2469 C.ar    1  UNL1       -0.0006
     12 C         141.3799  141.2594  159.5309 C.ar    1  UNL1        0.0001
     13 C         141.6111  141.6922  160.9483 C.ar    1  UNL1        0.0045
     14 N         142.6683  140.8359  164.2120 N.am    1  UNL1       -0.2761
     15 C         141.4125  141.2417  163.4993 C.2     1  UNL1        0.2490
     16 O         140.3878  142.0803  164.2040 O.2     1  UNL1       -0.2699
     17 C         143.4808  142.6218  165.9152 C.3     1  UNL1        0.0233
     18 C         142.8995  141.2687  165.6295 C.3     1  UNL1        0.0938
     19 C         143.6931  139.9973  163.5073 C.3     1  UNL1        0.0938
     20 C         144.9902  139.6705  164.1860 C.3     1  UNL1        0.0233
     21 C         141.5378  138.7210  157.1055 C.ar    1  UNL1        0.0006
     22 C         142.5987  139.4301  156.3170 C.ar    1  UNL1        0.0001
     23 C         143.6488  138.6406  155.5931 C.ar    1  UNL1        0.0013
     24 C         143.6380  137.1421  155.6577 C.ar    1  UNL1        0.0147
     25 C         142.5771  136.4330  156.4462 C.ar    1  UNL1        0.0503
     26 C         141.5270  137.2224  157.1701 C.ar    1  UNL1        0.0147
     27 N         142.5663  134.9344  156.5107 N.am    1  UNL1       -0.2839
     28 C         141.7799  134.1460  155.5058 C.2     1  UNL1        0.2266
     29 C         141.7692  132.6475  155.5703 C.3     1  UNL1        0.0949
     30 O         141.0043  134.8562  154.4361 O.2     1  UNL1       -0.2748
     31 H         143.0754  134.4683  157.2127 H       1  UNL1        0.1549
     32 C         135.3625  140.9372  155.0550 C.3     1  UNL1        0.0992
     33 C         134.0536  140.4454  155.5982 C.ar    1  UNL1       -0.0060
     34 C         132.8354  141.3176  155.5236 C.ar    1  UNL1       -0.0006
     35 C         131.5266  140.8258  156.0668 C.ar    1  UNL1        0.0294
     36 C         131.4358  139.4619  156.6845 C.ar    1  UNL1        0.1401
     37 F         130.1269  138.9702  157.2277 F       1  UNL1       -0.2042
     38 C         132.6539  138.5898  156.7591 C.ar    1  UNL1        0.0294
     39 C         133.9628  139.0816  156.2159 C.ar    1  UNL1       -0.0006
@<TRIPOS>BOND
     1    17    18    1
     2    18    14    1
     3    14    19    1
     4    19    20    1
     5    14    15   am
     6    15    16    2
     7    15     8    1
     8     8     9   ar
     9     9    10   ar
    10    10    11   ar
    11    11     1    1
    12     1     2    2
    13     2     3    1
    14     3     4    1
    15     4     5    1
    16     5    32    1
    17    32    33    1
    18    33    34   ar
    19    34    35   ar
    20    35    36   ar
    21    36    37    1
    22    36    38   ar
    23    38    39   ar
    24     5     6    1
    25     6     7    1
    26     1    21    1
    27    21    22   ar
    28    22    23   ar
    29    23    24   ar
    30    24    25   ar
    31    25    27    1
    32    27    28   am
    33    28    29    1
    34    28    30    2
    35    25    26   ar
    36    11    12   ar
    37    12    13   ar
    38    13     8   ar
    39     7     2    1
    40    26    21   ar
    41    39    33   ar
    42    27    31    1
@<TRIPOS>MOLECULE
*****
 39 42 0 0 0
SMALL
GASTEIGER

@<TRIPOS>ATOM
      1 C         140.1056  142.4662  157.7422 C.2     1  UNL1       -0.0078
      2 C         140.5435  143.0975  159.0305 C.2     1  UNL1       -0.0414
      3 C         140.0667  144.4730  159.3918 C.3     1  UNL1        0.0394
      4 C         140.5046  145.1043  160.6802 C.3     1  UNL1        0.0767
      5 N         141.4193  144.3600  161.6071 N.3     1  UNL1       -0.2683
      6 C         141.8961  142.9844  161.2458 C.3     1  UNL1        0.0767
      7 C         141.4582  142.3532  159.9576 C.3     1  UNL1        0.0394
      8 C         141.5360  138.3396  156.6583 C.ar    1  UNL1        0.0536
      9 C         142.3301  139.5420  156.2420 C.ar    1  UNL1        0.0045
     10 C         141.8533  140.9176  156.6033 C.ar    1  UNL1        0.0001
     11 C         140.5824  141.0907  157.3809 C.ar    1  UNL1       -0.0006
     12 C         139.7882  139.8882  157.7973 C.ar    1  UNL1        0.0001
     13 C         140.2650  138.5127  157.4360 C.ar    1  UNL1        0.0045
     14 N         141.6229  136.3564  154.9822 N.am    1  UNL1       -0.2761
     15 C         142.0127  136.9640  156.2970 C.2     1  UNL1        0.2490
     16 O         142.8794  136.1961  157.2505 O.2     1  UNL1       -0.2699
     17 C         141.4024  133.7750  155.1777 C.3     1  UNL1        0.0233
     18 C         142.0997  134.9808  154.6209 C.3     1  UNL1        0.0938
     19 C         140.7563  137.1243  154.0286 C.3     1  UNL1        0.0938
     20 C         139.2637  136.9935  154.1000 C.3     1  UNL1        0.0233
     21 C         139.1909  143.2105  156.8152 C.ar    1  UNL1        0.0006
     22 C         137.7635  142.7758  156.6610 C.ar    1  UNL1        0.0001
     23 C         136.8488  143.5201  155.7340 C.ar    1  UNL1        0.0013
     24 C         137.3614  144.6991  154.9612 C.ar    1  UNL1        0.0147
     25 C         138.7887  145.1338  155.1154 C.ar    1  UNL1        0.0503
     26 C         139.7035  144.3895  156.0424 C.ar    1  UNL1        0.0147
     27 N         139.3013  146.3128  154.3426 N.am    1  UNL1       -0.2839
     28 C         139.3450  147.6682  154.9836 C.2     1  UNL1        0.2266
     29 C         139.8576  148.8472  154.2108 C.3     1  UNL1        0.0949
     30 O         138.8759  147.8447  156.3975 O.2     1  UNL1       -0.2748
     31 H         139.6092  146.1970  153.4147 H       1  UNL1        0.1549
     32 C         141.8572  144.9913  162.8955 C.3     1  UNL1        0.0992
     33 C         142.1990  144.1295  164.0747 C.ar    1  UNL1       -0.0060
     34 C         143.6340  143.9123  164.4541 C.ar    1  UNL1       -0.0006
     35 C         143.9758  143.0506  165.6333 C.ar    1  UNL1        0.0294
     36 C         142.8826  142.4061  166.4332 C.ar    1  UNL1        0.1401
     37 F         143.2244  141.5443  167.6125 F       1  UNL1       -0.2042
     38 C         141.4478  142.6233  166.0539 C.ar    1  UNL1        0.0294
     39 C         141.1060  143.4851  164.8746 C.ar    1  UNL1       -0.0006
@<TRIPOS>BOND
     1    17    18    1
     2    18    14    1
     3    14    19    1
     4    19    20    1
     5    14    15   am
     6    15    16    2
     7    15     8    1
     8     8     9   ar
     9     9    10   ar
    10    10    11   ar
    11    11     1    1
    12     1     2    2
    13     2     3    1
    14     3     4    1
    15     4     5    1
    16     5    32    1
    17    32    33    1
    18    33    34   ar
    19    34    35   ar
    20    35    36   ar
    21    36    37    1
    22    36    38   ar
    23    38    39   ar
    24     5     6    1
    25     6     7    1
    26     1    21    1
    27    21    22   ar
    28    22    23   ar
    29    23    24   ar
    30    24    25   ar
    31    25    27    1
    32    27    28   am
    33    28    29    1
    34    28    30    2
    35    25    26   ar
    36    11    12   ar
    37    12    13   ar
    38    13     8   ar
    39     7     2    1
    40    26    21   ar
    41    39    33   ar
    42    27    31    1
@<TRIPOS>MOLECULE
*****
 39 42 0 0 0
SMALL
GASTEIGER

@<TRIPOS>ATOM
      1 C         140.2799  139.6445  157.8082 C.2     1  UNL1       -0.0078
      2 C         140.5575  139.5916  159.2813 C.2     1  UNL1       -0.0414
      3 C         140.1306  140.7251  160.1661 C.3     1  UNL1        0.0394
      4 C         140.4082  140.6722  161.6393 C.3     1  UNL1        0.0767
      5 N         141.1126  139.4858  162.2276 N.3     1  UNL1       -0.2683
      6 C         141.5395  138.3523  161.3428 C.3     1  UNL1        0.0767
      7 C         141.2619  138.4051  159.8697 C.3     1  UNL1        0.0394
      8 C         141.5604  136.2438  155.1538 C.ar    1  UNL1        0.0536
      9 C         142.5673  137.2555  155.6149 C.ar    1  UNL1        0.0045
     10 C         142.1405  138.3891  156.4997 C.ar    1  UNL1        0.0001
     11 C         140.7067  138.5109  156.9234 C.ar    1  UNL1       -0.0006
     12 C         139.6999  137.4993  156.4623 C.ar    1  UNL1        0.0001
     13 C         140.1267  136.3657  155.5775 C.ar    1  UNL1        0.0045
     14 N         142.4648  133.8242  154.8755 N.am    1  UNL1       -0.2761
     15 C         141.9873  135.1103  154.2690 C.2     1  UNL1        0.2490
     16 O         141.9366  135.2628  152.7776 O.2     1  UNL1       -0.2699
     17 C         143.0877  131.3206  154.5691 C.3     1  UNL1        0.0233
     18 C         142.8917  132.6907  153.9907 C.3     1  UNL1        0.0938
     19 C         142.5156  133.6717  156.3669 C.3     1  UNL1        0.0938
     20 C         143.7828  133.9765  157.1093 C.3     1  UNL1        0.0233
     21 C         139.5755  140.8309  157.2199 C.ar    1  UNL1        0.0006
     22 C         140.3556  142.0553  156.8427 C.ar    1  UNL1        0.0001
     23 C         139.6512  143.2417  156.2544 C.ar    1  UNL1        0.0013
     24 C         138.1666  143.2038  156.0432 C.ar    1  UNL1        0.0147
     25 C         137.3865  141.9795  156.4204 C.ar    1  UNL1        0.0503
     26 C         138.0909  140.7930  157.0087 C.ar    1  UNL1        0.0147
     27 N         135.9019  141.9415  156.2092 N.am    1  UNL1       -0.2839
     28 C         135.3318  141.2313  155.0174 C.2     1  UNL1        0.2266
     29 C         133.8472  141.1933  154.8063 C.3     1  UNL1        0.0949
     30 O         136.2462  140.5589  154.0367 O.2     1  UNL1       -0.2748
     31 H         135.3017  142.3829  156.8529 H       1  UNL1        0.1549
     32 C         141.3903  139.4329  163.7008 C.3     1  UNL1        0.0992
     33 C         140.2875  139.0960  164.6601 C.ar    1  UNL1       -0.0060
     34 C         139.9225  140.0585  165.7513 C.ar    1  UNL1       -0.0006
     35 C         138.8197  139.7215  166.7106 C.ar    1  UNL1        0.0294
     36 C         138.0819  138.4221  166.5789 C.ar    1  UNL1        0.1401
     37 F         136.9791  138.0852  167.5382 F       1  UNL1       -0.2042
     38 C         138.4469  137.4597  165.4878 C.ar    1  UNL1        0.0294
     39 C         139.5497  137.7966  164.5284 C.ar    1  UNL1       -0.0006
@<TRIPOS>BOND
     1    17    18    1
     2    18    14    1
     3    14    19    1
     4    19    20    1
     5    14    15   am
     6    15    16    2
     7    15     8    1
     8     8     9   ar
     9     9    10   ar
    10    10    11   ar
    11    11     1    1
    12     1     2    2
    13     2     3    1
    14     3     4    1
    15     4     5    1
    16     5    32    1
    17    32    33    1
    18    33    34   ar
    19    34    35   ar
    20    35    36   ar
    21    36    37    1
    22    36    38   ar
    23    38    39   ar
    24     5     6    1
    25     6     7    1
    26     1    21    1
    27    21    22   ar
    28    22    23   ar
    29    23    24   ar
    30    24    25   ar
    31    25    27    1
    32    27    28   am
    33    28    29    1
    34    28    30    2
    35    25    26   ar
    36    11    12   ar
    37    12    13   ar
    38    13     8   ar
    39     7     2    1
    40    26    21   ar
    41    39    33   ar
    42    27    31    1
