@<TRIPOS>MOLECULE
*****
 38 42 0 0 0
SMALL
GASTEIGER

@<TRIPOS>ATOM
      1 C         139.6601  144.0181  158.5157 C.3     1  UNL1        0.0759
      2 C         140.3536  145.0078  159.4042 C.3     1  UNL1        0.0371
      3 C         140.3419  144.8171  160.8920 C.3     1  UNL1        0.0737
      4 N         139.6367  143.6367  161.4913 N.3     1  UNL1       -0.2750
      5 C         138.9431  142.6469  160.6028 C.3     1  UNL1        0.0737
      6 C         138.9548  142.8376  159.1150 C.3     1  UNL1        0.0371
      7 C         139.6250  143.4460  162.9790 C.3     1  UNL1        0.0487
      8 C         138.8654  144.7352  162.8757 C.3     1  UNL1        0.0161
      9 C         140.3887  142.2229  162.5656 C.3     1  UNL1        0.0362
     10 C         140.8768  141.2569  163.6042 C.3     1  UNL1        0.0951
     11 N         140.6013  141.5139  165.0560 N.am    1  UNL1       -0.2758
     12 C         141.0895  140.5479  166.0946 C.2     1  UNL1        0.2542
     13 O         141.8532  139.3248  165.6812 O.2     1  UNL1       -0.2697
     14 C         139.8376  142.7370  165.4694 C.3     1  UNL1        0.0951
     15 C         139.3495  143.7030  164.4309 C.3     1  UNL1        0.0362
     16 C         140.8139  140.8050  167.5465 C.ar    1  UNL1        0.1099
     17 C         141.7566  141.6505  168.3506 C.ar    1  UNL1       -0.0058
     18 C         142.9748  142.2389  167.7028 C.3     1  UNL1        0.0316
     19 C         141.4809  141.9075  169.8025 C.ar    1  UNL1        0.0730
     20 C         140.2626  141.3191  170.4502 C.ar    1  UNL1        0.3010
     21 N         139.3200  140.4736  169.6461 N.ar    1  UNL1       -0.1606
     22 O         138.1017  139.8852  170.2939 O.co2   1  UNL1       -0.6190
     23 C         139.5956  140.2166  168.1942 C.ar    1  UNL1        0.2180
     24 C         138.6530  139.3711  167.3901 C.3     1  UNL1        0.1093
     25 N         139.6718  144.2088  157.0279 N.pl3   1  UNL1       -0.3039
     26 C         138.7661  143.3871  156.1593 C.ar    1  UNL1        0.0481
     27 C         139.2618  142.1041  155.5608 C.ar    1  UNL1        0.0145
     28 C         138.3561  141.2825  154.6923 C.ar    1  UNL1        0.0013
     29 C         136.9546  141.7438  154.4222 C.ar    1  UNL1        0.0001
     30 C         136.4588  143.0267  155.0206 C.ar    1  UNL1        0.0013
     31 C         137.3645  143.8484  155.8892 C.ar    1  UNL1        0.0145
     32 C         140.5892  145.2212  156.4087 C.3     1  UNL1        0.1376
     33 C         138.0998  149.8776  156.3655 C.3     1  UNL1        0.0594
     34 C         138.9049  148.6864  155.9381 C.ar    1  UNL1        0.0883
     35 N         139.2249  147.4891  156.7833 N.ar    1  UNL1       -0.2453
     36 C         140.0492  146.5461  155.9579 C.ar    1  UNL1        0.0856
     37 C         140.2388  147.1604  154.6027 C.ar    1  UNL1        0.0530
     38 S         139.5316  148.4832  154.5904 S.2     1  UNL1       -0.0705
@<TRIPOS>UNITY_ATOM_ATTR
21 1
charge 1
22 1
charge -1
@<TRIPOS>BOND
     1    33    34    1
     2    34    35   ar
     3    35    36   ar
     4    36    32    1
     5    32    25    1
     6    25    26    1
     7    26    27   ar
     8    27    28   ar
     9    28    29   ar
    10    29    30   ar
    11    30    31   ar
    12    25     1    1
    13     1     2    1
    14     2     3    1
    15     3     4    1
    16     4     7    1
    17     7     8    1
    18     7     9    1
    19     9    10    1
    20    10    11    1
    21    11    12   am
    22    12    13    2
    23    12    16    1
    24    16    17   ar
    25    17    18    1
    26    17    19   ar
    27    19    20   ar
    28    20    21   ar
    29    21    22    1
    30    21    23   ar
    31    23    24    1
    32    11    14    1
    33    14    15    1
    34     4     5    1
    35     5     6    1
    36    36    37   ar
    37    37    38   ar
    38    38    34   ar
    39    31    26   ar
    40     6     1    1
    41    15     7    1
    42    23    16   ar
@<TRIPOS>MOLECULE
*****
 38 42 0 0 0
SMALL
GASTEIGER

@<TRIPOS>ATOM
      1 C         139.6479  143.9453  158.5218 C.3     1  UNL1        0.0759
      2 C         140.3131  144.9505  159.4146 C.3     1  UNL1        0.0371
      3 C         140.2793  144.7699  160.9033 C.3     1  UNL1        0.0737
      4 N         139.5804  143.5840  161.4992 N.3     1  UNL1       -0.2750
      5 C         138.9152  142.5787  160.6065 C.3     1  UNL1        0.0737
      6 C         138.9490  142.7593  159.1178 C.3     1  UNL1        0.0371
      7 C         139.5467  143.4033  162.9879 C.3     1  UNL1        0.0487
      8 C         138.7138  144.6440  162.8571 C.3     1  UNL1        0.0161
      9 C         140.3913  142.2254  162.6016 C.3     1  UNL1        0.0362
     10 C         140.9129  141.2977  163.6587 C.3     1  UNL1        0.0951
     11 N         140.5900  141.5479  165.1019 N.am    1  UNL1       -0.2758
     12 C         141.1116  140.6202  166.1590 C.2     1  UNL1        0.2542
     13 O         141.9562  139.4423  165.7727 O.2     1  UNL1       -0.2697
     14 C         139.7454  142.7258  165.4882 C.3     1  UNL1        0.0951
     15 C         139.2238  143.6535  164.4312 C.3     1  UNL1        0.0362
     16 C         140.7886  140.8705  167.6023 C.ar    1  UNL1        0.1099
     17 C         139.5717  140.2457  168.2178 C.ar    1  UNL1       -0.0058
     18 C         138.6778  139.3705  167.3901 C.3     1  UNL1        0.0316
     19 C         139.2488  140.4960  169.6612 C.ar    1  UNL1        0.0730
     20 C         140.1427  141.3711  170.4888 C.ar    1  UNL1        0.3010
     21 N         141.3595  141.9959  169.8732 N.ar    1  UNL1       -0.1606
     22 O         142.2534  142.8711  170.7010 O.co2   1  UNL1       -0.6190
     23 C         141.6825  141.7456  168.4300 C.ar    1  UNL1        0.2180
     24 C         142.8993  142.3704  167.8144 C.3     1  UNL1        0.1093
     25 N         139.6816  144.1260  157.0331 N.pl3   1  UNL1       -0.3039
     26 C         138.7465  143.3416  156.1611 C.ar    1  UNL1        0.0481
     27 C         137.3691  143.8638  155.8783 C.ar    1  UNL1        0.0145
     28 C         136.4341  143.0795  155.0063 C.ar    1  UNL1        0.0013
     29 C         136.8764  141.7729  154.4170 C.ar    1  UNL1        0.0001
     30 C         138.2539  141.2507  154.6998 C.ar    1  UNL1        0.0013
     31 C         139.1889  142.0351  155.5718 C.ar    1  UNL1        0.0145
     32 C         140.6504  145.0909  156.4165 C.3     1  UNL1        0.1376
     33 C         138.2369  149.7680  155.9911 C.3     1  UNL1        0.0594
     34 C         139.0512  148.5489  155.6741 C.ar    1  UNL1        0.0883
     35 N         139.2973  147.3893  156.5934 N.ar    1  UNL1       -0.2453
     36 C         140.1606  146.3990  155.8696 C.ar    1  UNL1        0.0856
     37 C         140.4482  146.9464  154.5030 C.ar    1  UNL1        0.0530
     38 S         139.7626  148.2751  154.3821 S.2     1  UNL1       -0.0705
@<TRIPOS>UNITY_ATOM_ATTR
21 1
charge 1
22 1
charge -1
@<TRIPOS>BOND
     1    33    34    1
     2    34    35   ar
     3    35    36   ar
     4    36    32    1
     5    32    25    1
     6    25    26    1
     7    26    27   ar
     8    27    28   ar
     9    28    29   ar
    10    29    30   ar
    11    30    31   ar
    12    25     1    1
    13     1     2    1
    14     2     3    1
    15     3     4    1
    16     4     7    1
    17     7     8    1
    18     7     9    1
    19     9    10    1
    20    10    11    1
    21    11    12   am
    22    12    13    2
    23    12    16    1
    24    16    17   ar
    25    17    18    1
    26    17    19   ar
    27    19    20   ar
    28    20    21   ar
    29    21    22    1
    30    21    23   ar
    31    23    24    1
    32    11    14    1
    33    14    15    1
    34     4     5    1
    35     5     6    1
    36    36    37   ar
    37    37    38   ar
    38    38    34   ar
    39    31    26   ar
    40     6     1    1
    41    15     7    1
    42    23    16   ar
@<TRIPOS>MOLECULE
*****
 38 42 0 0 0
SMALL
GASTEIGER

@<TRIPOS>ATOM
      1 C         139.0504  142.8856  158.3179 C.3     1  UNL1        0.0759
      2 C         139.7019  143.9902  159.0960 C.3     1  UNL1        0.0371
      3 C         139.7348  143.9336  160.5946 C.3     1  UNL1        0.0737
      4 N         139.1162  142.7725  161.3151 N.3     1  UNL1       -0.2750
      5 C         138.4647  141.6679  160.5370 C.3     1  UNL1        0.0737
      6 C         138.4318  141.7244  159.0384 C.3     1  UNL1        0.0371
      7 C         139.1491  142.7160  162.8136 C.3     1  UNL1        0.0487
      8 C         138.2334  143.8877  162.6172 C.3     1  UNL1        0.0161
      9 C         140.0534  141.5639  162.4896 C.3     1  UNL1        0.0362
     10 C         140.6725  140.7622  163.5959 C.3     1  UNL1        0.0951
     11 N         140.3874  141.1125  165.0262 N.am    1  UNL1       -0.2758
     12 C         141.0066  140.3108  166.1326 C.2     1  UNL1        0.2542
     13 O         141.9108  139.1588  165.8085 O.2     1  UNL1       -0.2697
     14 C         139.4831  142.2646  165.3503 C.3     1  UNL1        0.0951
     15 C         138.8640  143.0663  164.2440 C.3     1  UNL1        0.0362
     16 C         140.7214  140.6613  167.5629 C.ar    1  UNL1        0.1099
     17 C         141.6580  141.5584  168.3165 C.ar    1  UNL1       -0.0058
     18 C         142.8799  142.1051  167.6397 C.3     1  UNL1        0.0316
     19 C         141.3727  141.9088  169.7469 C.ar    1  UNL1        0.0730
     20 C         140.1508  141.3620  170.4236 C.ar    1  UNL1        0.3010
     21 N         139.2142  140.4649  169.6700 N.ar    1  UNL1       -0.1606
     22 O         137.9923  139.9182  170.3468 O.co2   1  UNL1       -0.6190
     23 C         139.4994  140.1145  168.2397 C.ar    1  UNL1        0.2180
     24 C         138.5628  139.2174  167.4862 C.3     1  UNL1        0.1093
     25 N         139.0175  142.9422  156.8194 N.pl3   1  UNL1       -0.3039
     26 C         139.3922  144.2087  156.1082 C.ar    1  UNL1        0.0481
     27 C         140.8291  144.4882  155.7809 C.ar    1  UNL1        0.0145
     28 C         141.2037  145.7546  155.0698 C.ar    1  UNL1        0.0013
     29 C         140.1414  146.7416  154.6860 C.ar    1  UNL1        0.0001
     30 C         138.7045  146.4622  155.0133 C.ar    1  UNL1        0.0013
     31 C         138.3299  145.1957  155.7244 C.ar    1  UNL1        0.0145
     32 C         138.6100  141.7323  156.0319 C.3     1  UNL1        0.1376
     33 C         133.6292  140.0135  156.3757 C.3     1  UNL1        0.0594
     34 C         134.8719  140.6971  155.8876 C.ar    1  UNL1        0.0883
     35 N         136.2125  140.6751  156.5604 N.ar    1  UNL1       -0.2453
     36 C         137.1614  141.4872  155.7295 C.ar    1  UNL1        0.0856
     37 C         136.4074  142.0110  154.5434 C.ar    1  UNL1        0.0530
     38 S         134.9924  141.5227  154.6410 S.2     1  UNL1       -0.0705
@<TRIPOS>UNITY_ATOM_ATTR
21 1
charge 1
22 1
charge -1
@<TRIPOS>BOND
     1    33    34    1
     2    34    35   ar
     3    35    36   ar
     4    36    32    1
     5    32    25    1
     6    25    26    1
     7    26    27   ar
     8    27    28   ar
     9    28    29   ar
    10    29    30   ar
    11    30    31   ar
    12    25     1    1
    13     1     2    1
    14     2     3    1
    15     3     4    1
    16     4     7    1
    17     7     8    1
    18     7     9    1
    19     9    10    1
    20    10    11    1
    21    11    12   am
    22    12    13    2
    23    12    16    1
    24    16    17   ar
    25    17    18    1
    26    17    19   ar
    27    19    20   ar
    28    20    21   ar
    29    21    22    1
    30    21    23   ar
    31    23    24    1
    32    11    14    1
    33    14    15    1
    34     4     5    1
    35     5     6    1
    36    36    37   ar
    37    37    38   ar
    38    38    34   ar
    39    31    26   ar
    40     6     1    1
    41    15     7    1
    42    23    16   ar
@<TRIPOS>MOLECULE
*****
 38 42 0 0 0
SMALL
GASTEIGER

@<TRIPOS>ATOM
      1 C         138.5059  141.4120  158.4483 C.3     1  UNL1        0.0759
      2 C         139.0295  142.6994  159.0125 C.3     1  UNL1        0.0371
      3 C         139.1259  142.8829  160.4981 C.3     1  UNL1        0.0737
      4 N         138.6987  141.7790  161.4195 N.3     1  UNL1       -0.2750
      5 C         138.1751  140.4916  160.8553 C.3     1  UNL1        0.0737
      6 C         138.0787  140.3080  159.3697 C.3     1  UNL1        0.0371
      7 C         138.7951  141.9626  162.9051 C.3     1  UNL1        0.0487
      8 C         137.7792  143.0165  162.5778 C.3     1  UNL1        0.0161
      9 C         139.7775  140.8449  162.7164 C.3     1  UNL1        0.0362
     10 C         140.5035  140.2767  163.8997 C.3     1  UNL1        0.0951
     11 N         140.2471  140.8263  165.2716 N.am    1  UNL1       -0.2758
     12 C         140.9732  140.2581  166.4549 C.2     1  UNL1        0.2542
     13 O         141.9556  139.1404  166.2662 O.2     1  UNL1       -0.2697
     14 C         139.2647  141.9440  165.4603 C.3     1  UNL1        0.0951
     15 C         138.5387  142.5121  164.2770 C.3     1  UNL1        0.0362
     16 C         140.7167  140.8077  167.8268 C.ar    1  UNL1        0.1099
     17 C         139.5133  140.3591  168.6017 C.ar    1  UNL1       -0.0058
     18 C         138.5662  139.3608  168.0046 C.3     1  UNL1        0.0316
     19 C         139.2569  140.9088  169.9737 C.ar    1  UNL1        0.0730
     20 C         140.2040  141.9071  170.5706 C.ar    1  UNL1        0.3010
     21 N         141.4074  142.3557  169.7958 N.ar    1  UNL1       -0.1606
     22 O         142.3545  143.3541  170.3928 O.co2   1  UNL1       -0.6190
     23 C         141.6638  141.8061  168.4239 C.ar    1  UNL1        0.2180
     24 C         142.8672  142.2547  167.6490 C.3     1  UNL1        0.1093
     25 N         138.4095  141.2285  156.9627 N.pl3   1  UNL1       -0.3039
     26 C         139.3620  140.3091  156.2572 C.ar    1  UNL1        0.0481
     27 C         138.8964  138.9622  155.7892 C.ar    1  UNL1        0.0145
     28 C         139.8488  138.0429  155.0837 C.ar    1  UNL1        0.0013
     29 C         141.2669  138.4705  154.8463 C.ar    1  UNL1        0.0001
     30 C         141.7324  139.8174  155.3143 C.ar    1  UNL1        0.0013
     31 C         140.7800  140.7367  156.0198 C.ar    1  UNL1        0.0145
     32 C         137.3607  141.9642  156.1826 C.3     1  UNL1        0.1376
     33 C         133.1052  138.8895  156.7471 C.3     1  UNL1        0.0594
     34 C         134.0523  139.9351  156.2373 C.ar    1  UNL1        0.0883
     35 N         135.4158  140.2330  156.7871 N.ar    1  UNL1       -0.2453
     36 C         136.0083  141.3484  155.9778 C.ar    1  UNL1        0.0856
     37 C         135.0111  141.7398  154.9279 C.ar    1  UNL1        0.0530
     38 S         133.8022  140.8664  155.0882 S.2     1  UNL1       -0.0705
@<TRIPOS>UNITY_ATOM_ATTR
21 1
charge 1
22 1
charge -1
@<TRIPOS>BOND
     1    33    34    1
     2    34    35   ar
     3    35    36   ar
     4    36    32    1
     5    32    25    1
     6    25    26    1
     7    26    27   ar
     8    27    28   ar
     9    28    29   ar
    10    29    30   ar
    11    30    31   ar
    12    25     1    1
    13     1     2    1
    14     2     3    1
    15     3     4    1
    16     4     7    1
    17     7     8    1
    18     7     9    1
    19     9    10    1
    20    10    11    1
    21    11    12   am
    22    12    13    2
    23    12    16    1
    24    16    17   ar
    25    17    18    1
    26    17    19   ar
    27    19    20   ar
    28    20    21   ar
    29    21    22    1
    30    21    23   ar
    31    23    24    1
    32    11    14    1
    33    14    15    1
    34     4     5    1
    35     5     6    1
    36    36    37   ar
    37    37    38   ar
    38    38    34   ar
    39    31    26   ar
    40     6     1    1
    41    15     7    1
    42    23    16   ar
@<TRIPOS>MOLECULE
*****
 38 42 0 0 0
SMALL
GASTEIGER

@<TRIPOS>ATOM
      1 C         140.3565  143.5175  158.7602 C.3     1  UNL1        0.0759
      2 C         139.2338  142.7665  159.4124 C.3     1  UNL1        0.0371
      3 C         139.1497  142.6934  160.9083 C.3     1  UNL1        0.0737
      4 N         140.1882  143.3715  161.7519 N.3     1  UNL1       -0.2750
      5 C         141.3109  144.1226  161.0997 C.3     1  UNL1        0.0737
      6 C         141.3950  144.1957  159.6038 C.3     1  UNL1        0.0371
      7 C         140.1040  143.2985  163.2478 C.3     1  UNL1        0.0487
      8 C         139.3258  144.5575  163.0042 C.3     1  UNL1        0.0161
      9 C         140.9114  142.0648  162.9717 C.3     1  UNL1        0.0362
     10 C         141.3644  141.1954  164.1071 C.3     1  UNL1        0.0951
     11 N         141.0100  141.5596  165.5183 N.am    1  UNL1       -0.2758
     12 C         141.4630  140.6902  166.6536 C.2     1  UNL1        0.2542
     13 O         142.2705  139.4565  166.3776 O.2     1  UNL1       -0.2697
     14 C         140.2026  142.7932  165.7943 C.3     1  UNL1        0.0951
     15 C         139.7496  143.6627  164.6590 C.3     1  UNL1        0.0362
     16 C         141.1086  141.0544  168.0649 C.ar    1  UNL1        0.1099
     17 C         139.8333  140.5496  168.6722 C.ar    1  UNL1       -0.0058
     18 C         138.9124  139.6804  167.8681 C.3     1  UNL1        0.0316
     19 C         139.4789  140.9140  170.0835 C.ar    1  UNL1        0.0730
     20 C         140.3998  141.7831  170.8874 C.ar    1  UNL1        0.3010
     21 N         141.6751  142.2880  170.2802 N.ar    1  UNL1       -0.1606
     22 O         142.5960  143.1572  171.0842 O.co2   1  UNL1       -0.6190
     23 C         142.0295  141.9237  168.8689 C.ar    1  UNL1        0.2180
     24 C         143.3048  142.4285  168.2617 C.3     1  UNL1        0.1093
     25 N         140.4406  143.5906  157.2643 N.pl3   1  UNL1       -0.3039
     26 C         139.7749  144.7163  156.5298 C.ar    1  UNL1        0.0481
     27 C         138.5499  144.4532  155.7051 C.ar    1  UNL1        0.0145
     28 C         137.8842  145.5789  154.9706 C.ar    1  UNL1        0.0013
     29 C         138.4436  146.9678  155.0607 C.ar    1  UNL1        0.0001
     30 C         139.6686  147.2310  155.8854 C.ar    1  UNL1        0.0013
     31 C         140.3342  146.1052  156.6199 C.ar    1  UNL1        0.0145
     32 C         141.1905  142.5379  156.5031 C.3     1  UNL1        0.1376
     33 C         142.7357  138.1149  158.9384 C.3     1  UNL1        0.0594
     34 C         142.7346  139.4981  158.3581 C.ar    1  UNL1        0.0883
     35 N         141.5874  140.1566  157.6506 N.ar    1  UNL1       -0.2453
     36 C         142.0244  141.5312  157.2387 C.ar    1  UNL1        0.0856
     37 C         143.4416  141.7222  157.6916 C.ar    1  UNL1        0.0530
     38 S         143.8805  140.4658  158.3834 S.2     1  UNL1       -0.0705
@<TRIPOS>UNITY_ATOM_ATTR
21 1
charge 1
22 1
charge -1
@<TRIPOS>BOND
     1    33    34    1
     2    34    35   ar
     3    35    36   ar
     4    36    32    1
     5    32    25    1
     6    25    26    1
     7    26    27   ar
     8    27    28   ar
     9    28    29   ar
    10    29    30   ar
    11    30    31   ar
    12    25     1    1
    13     1     2    1
    14     2     3    1
    15     3     4    1
    16     4     7    1
    17     7     8    1
    18     7     9    1
    19     9    10    1
    20    10    11    1
    21    11    12   am
    22    12    13    2
    23    12    16    1
    24    16    17   ar
    25    17    18    1
    26    17    19   ar
    27    19    20   ar
    28    20    21   ar
    29    21    22    1
    30    21    23   ar
    31    23    24    1
    32    11    14    1
    33    14    15    1
    34     4     5    1
    35     5     6    1
    36    36    37   ar
    37    37    38   ar
    38    38    34   ar
    39    31    26   ar
    40     6     1    1
    41    15     7    1
    42    23    16   ar
@<TRIPOS>MOLECULE
*****
 38 42 0 0 0
SMALL
GASTEIGER

@<TRIPOS>ATOM
      1 C         139.0374  141.8232  158.8403 C.3     1  UNL1        0.0759
      2 C         138.1387  142.5615  159.7875 C.3     1  UNL1        0.0371
      3 C         138.2156  142.2890  161.2605 C.3     1  UNL1        0.0737
      4 N         139.1911  141.2782  161.7864 N.3     1  UNL1       -0.2750
      5 C         140.0899  140.5398  160.8391 C.3     1  UNL1        0.0737
      6 C         140.0131  140.8124  159.3661 C.3     1  UNL1        0.0371
      7 C         139.2680  141.0057  163.2594 C.3     1  UNL1        0.0487
      8 C         137.9539  140.3555  162.9424 C.3     1  UNL1        0.0161
      9 C         140.5554  141.7505  163.0647 C.3     1  UNL1        0.0362
     10 C         141.4633  141.9969  164.2331 C.3     1  UNL1        0.0951
     11 N         141.0838  141.4987  165.5960 N.am    1  UNL1       -0.2758
     12 C         141.9917  141.7452  166.7644 C.2     1  UNL1        0.2542
     13 O         143.2791  142.4899  166.5697 O.2     1  UNL1       -0.2697
     14 C         139.7964  140.7539  165.7907 C.3     1  UNL1        0.0951
     15 C         138.8885  140.5074  164.6223 C.3     1  UNL1        0.0362
     16 C         141.6121  141.2468  168.1273 C.ar    1  UNL1        0.1099
     17 C         142.0688  139.8934  168.5852 C.ar    1  UNL1       -0.0058
     18 C         142.9052  139.0382  167.6801 C.3     1  UNL1        0.0316
     19 C         141.6892  139.3952  169.9482 C.ar    1  UNL1        0.0730
     20 C         140.8528  140.2503  170.8532 C.ar    1  UNL1        0.3010
     21 N         140.3961  141.6038  170.3953 N.ar    1  UNL1       -0.1606
     22 O         139.5597  142.4589  171.3005 O.co2   1  UNL1       -0.6190
     23 C         140.7757  142.1020  169.0324 C.ar    1  UNL1        0.2180
     24 C         140.3190  143.4554  168.5746 C.3     1  UNL1        0.1093
     25 N         138.9606  142.0957  157.3673 N.pl3   1  UNL1       -0.3039
     26 C         139.0704  143.5024  156.8580 C.ar    1  UNL1        0.0481
     27 C         140.1284  144.4163  157.4016 C.ar    1  UNL1        0.0145
     28 C         140.2382  145.8229  156.8924 C.ar    1  UNL1        0.0013
     29 C         139.2901  146.3156  155.8396 C.ar    1  UNL1        0.0001
     30 C         138.2321  145.4017  155.2960 C.ar    1  UNL1        0.0013
     31 C         138.1223  143.9951  155.8053 C.ar    1  UNL1        0.0145
     32 C         138.7739  140.9616  156.4035 C.3     1  UNL1        0.1376
     33 C         133.5467  140.2159  156.3541 C.3     1  UNL1        0.0594
     34 C         134.9909  140.2215  155.9485 C.ar    1  UNL1        0.0883
     35 N         136.1316  140.7655  156.7567 N.ar    1  UNL1       -0.2453
     36 C         137.3935  140.5642  155.9712 C.ar    1  UNL1        0.0856
     37 C         137.0329  139.8958  154.6777 C.ar    1  UNL1        0.0530
     38 S         135.5480  139.6840  154.6637 S.2     1  UNL1       -0.0705
@<TRIPOS>UNITY_ATOM_ATTR
21 1
charge 1
22 1
charge -1
@<TRIPOS>BOND
     1    33    34    1
     2    34    35   ar
     3    35    36   ar
     4    36    32    1
     5    32    25    1
     6    25    26    1
     7    26    27   ar
     8    27    28   ar
     9    28    29   ar
    10    29    30   ar
    11    30    31   ar
    12    25     1    1
    13     1     2    1
    14     2     3    1
    15     3     4    1
    16     4     7    1
    17     7     8    1
    18     7     9    1
    19     9    10    1
    20    10    11    1
    21    11    12   am
    22    12    13    2
    23    12    16    1
    24    16    17   ar
    25    17    18    1
    26    17    19   ar
    27    19    20   ar
    28    20    21   ar
    29    21    22    1
    30    21    23   ar
    31    23    24    1
    32    11    14    1
    33    14    15    1
    34     4     5    1
    35     5     6    1
    36    36    37   ar
    37    37    38   ar
    38    38    34   ar
    39    31    26   ar
    40     6     1    1
    41    15     7    1
    42    23    16   ar
@<TRIPOS>MOLECULE
*****
 38 42 0 0 0
SMALL
GASTEIGER

@<TRIPOS>ATOM
      1 C         143.8434  141.3019  158.6057 C.3     1  UNL1        0.0759
      2 C         143.5132  142.6546  159.1634 C.3     1  UNL1        0.0371
      3 C         143.4433  142.8572  160.6480 C.3     1  UNL1        0.0737
      4 N         143.7036  141.7070  161.5750 N.3     1  UNL1       -0.2750
      5 C         144.0339  140.3542  161.0173 C.3     1  UNL1        0.0737
      6 C         144.1038  140.1516  159.5327 C.3     1  UNL1        0.0371
      7 C         143.6337  141.9096  163.0596 C.3     1  UNL1        0.0487
      8 C         144.8486  142.7299  162.7417 C.3     1  UNL1        0.0161
      9 C         142.4431  141.0189  162.8619 C.3     1  UNL1        0.0362
     10 C         141.6045  140.6157  164.0384 C.3     1  UNL1        0.0951
     11 N         141.9565  141.1032  165.4126 N.am    1  UNL1       -0.2758
     12 C         141.1179  140.6999  166.5891 C.2     1  UNL1        0.2542
     13 O         139.9273  139.8093  166.3914 O.2     1  UNL1       -0.2697
     14 C         143.1471  141.9938  165.6103 C.3     1  UNL1        0.0951
     15 C         143.9857  142.3971  164.4338 C.3     1  UNL1        0.0362
     16 C         141.4700  141.1875  167.9633 C.ar    1  UNL1        0.1099
     17 C         142.3433  140.3543  168.8539 C.ar    1  UNL1       -0.0058
     18 C         142.8646  139.0335  168.3702 C.3     1  UNL1        0.0316
     19 C         142.6954  140.8420  170.2281 C.ar    1  UNL1        0.0730
     20 C         142.1740  142.1627  170.7116 C.ar    1  UNL1        0.3010
     21 N         141.3007  142.9958  169.8210 N.ar    1  UNL1       -0.1606
     22 O         140.7794  144.3166  170.3046 O.co2   1  UNL1       -0.6190
     23 C         140.9487  142.5082  168.4469 C.ar    1  UNL1        0.2180
     24 C         140.0753  143.3414  167.5563 C.3     1  UNL1        0.1093
     25 N         143.9133  141.0993  157.1211 N.pl3   1  UNL1       -0.3039
     26 C         145.1609  141.4641  156.3723 C.ar    1  UNL1        0.0481
     27 C         146.2586  142.2159  157.0650 C.ar    1  UNL1        0.0145
     28 C         147.5060  142.5807  156.3161 C.ar    1  UNL1        0.0013
     29 C         147.6558  142.1936  154.8747 C.ar    1  UNL1        0.0001
     30 C         146.5581  141.4418  154.1821 C.ar    1  UNL1        0.0013
     31 C         145.3107  141.0770  154.9309 C.ar    1  UNL1        0.0145
     32 C         142.7358  140.5319  156.3853 C.3     1  UNL1        0.1376
     33 C         143.3722  135.3012  156.7248 C.3     1  UNL1        0.0594
     34 C         142.7412  136.6568  156.6062 C.ar    1  UNL1        0.0883
     35 N         143.4683  137.9686  156.5793 N.ar    1  UNL1       -0.2453
     36 C         142.4486  139.0611  156.4501 C.ar    1  UNL1        0.0856
     37 C         141.0914  138.4246  156.3971 C.ar    1  UNL1        0.0530
     38 S         141.2721  136.9387  156.4936 S.2     1  UNL1       -0.0705
@<TRIPOS>UNITY_ATOM_ATTR
21 1
charge 1
22 1
charge -1
@<TRIPOS>BOND
     1    33    34    1
     2    34    35   ar
     3    35    36   ar
     4    36    32    1
     5    32    25    1
     6    25    26    1
     7    26    27   ar
     8    27    28   ar
     9    28    29   ar
    10    29    30   ar
    11    30    31   ar
    12    25     1    1
    13     1     2    1
    14     2     3    1
    15     3     4    1
    16     4     7    1
    17     7     8    1
    18     7     9    1
    19     9    10    1
    20    10    11    1
    21    11    12   am
    22    12    13    2
    23    12    16    1
    24    16    17   ar
    25    17    18    1
    26    17    19   ar
    27    19    20   ar
    28    20    21   ar
    29    21    22    1
    30    21    23   ar
    31    23    24    1
    32    11    14    1
    33    14    15    1
    34     4     5    1
    35     5     6    1
    36    36    37   ar
    37    37    38   ar
    38    38    34   ar
    39    31    26   ar
    40     6     1    1
    41    15     7    1
    42    23    16   ar
@<TRIPOS>MOLECULE
*****
 38 42 0 0 0
SMALL
GASTEIGER

@<TRIPOS>ATOM
      1 C         138.7894  140.4813  158.5911 C.3     1  UNL1        0.0759
      2 C         139.2899  139.1714  159.1238 C.3     1  UNL1        0.0371
      3 C         139.4941  138.9905  160.5988 C.3     1  UNL1        0.0737
      4 N         139.1980  140.1194  161.5410 N.3     1  UNL1       -0.2750
      5 C         138.6975  141.4293  161.0083 C.3     1  UNL1        0.0737
      6 C         138.4932  141.6103  159.5333 C.3     1  UNL1        0.0371
      7 C         139.4022  139.9385  163.0160 C.3     1  UNL1        0.0487
      8 C         138.2110  139.0511  162.8072 C.3     1  UNL1        0.0161
      9 C         140.5225  140.8887  162.7125 C.3     1  UNL1        0.0362
     10 C         141.4334  141.3498  163.8115 C.3     1  UNL1        0.0951
     11 N         141.2239  140.8607  165.2139 N.am    1  UNL1       -0.2758
     12 C         142.1348  141.3218  166.3129 C.2     1  UNL1        0.2542
     13 O         143.2550  142.2720  166.0094 O.2     1  UNL1       -0.2697
     14 C         140.1037  139.9105  165.5174 C.3     1  UNL1        0.0951
     15 C         139.1928  139.4494  164.4184 C.3     1  UNL1        0.0362
     16 C         141.9253  140.8326  167.7154 C.ar    1  UNL1        0.1099
     17 C         142.5111  139.5212  168.1477 C.ar    1  UNL1       -0.0058
     18 C         143.3064  138.6988  167.1775 C.3     1  UNL1        0.0316
     19 C         142.3015  139.0321  169.5502 C.ar    1  UNL1        0.0730
     20 C         141.5062  139.8545  170.5203 C.ar    1  UNL1        0.3010
     21 N         140.9204  141.1659  170.0879 N.ar    1  UNL1       -0.1606
     22 O         140.1251  141.9883  171.0581 O.co2   1  UNL1       -0.6190
     23 C         141.1300  141.6550  168.6855 C.ar    1  UNL1        0.2180
     24 C         140.5442  142.9665  168.2532 C.3     1  UNL1        0.1093
     25 N         138.5852  140.6622  157.1161 N.pl3   1  UNL1       -0.3039
     26 C         139.3834  139.8464  156.1427 C.ar    1  UNL1        0.0481
     27 C         140.8270  140.1720  155.8978 C.ar    1  UNL1        0.0145
     28 C         141.6251  139.3562  154.9245 C.ar    1  UNL1        0.0013
     29 C         140.9797  138.2148  154.1961 C.ar    1  UNL1        0.0001
     30 C         139.5361  137.8891  154.4411 C.ar    1  UNL1        0.0013
     31 C         138.7380  138.7049  155.4144 C.ar    1  UNL1        0.0145
     32 C         137.5827  141.6589  156.6144 C.3     1  UNL1        0.1376
     33 C         132.9489  139.1297  156.7244 C.3     1  UNL1        0.0594
     34 C         134.0608  140.0534  156.3239 C.ar    1  UNL1        0.0883
     35 N         135.3922  140.1774  157.0039 N.ar    1  UNL1       -0.2453
     36 C         136.1908  141.2160  156.2734 C.ar    1  UNL1        0.0856
     37 C         135.3531  141.7339  155.1420 C.ar    1  UNL1        0.0530
     38 S         134.0367  141.0154  155.1732 S.2     1  UNL1       -0.0705
@<TRIPOS>UNITY_ATOM_ATTR
21 1
charge 1
22 1
charge -1
@<TRIPOS>BOND
     1    33    34    1
     2    34    35   ar
     3    35    36   ar
     4    36    32    1
     5    32    25    1
     6    25    26    1
     7    26    27   ar
     8    27    28   ar
     9    28    29   ar
    10    29    30   ar
    11    30    31   ar
    12    25     1    1
    13     1     2    1
    14     2     3    1
    15     3     4    1
    16     4     7    1
    17     7     8    1
    18     7     9    1
    19     9    10    1
    20    10    11    1
    21    11    12   am
    22    12    13    2
    23    12    16    1
    24    16    17   ar
    25    17    18    1
    26    17    19   ar
    27    19    20   ar
    28    20    21   ar
    29    21    22    1
    30    21    23   ar
    31    23    24    1
    32    11    14    1
    33    14    15    1
    34     4     5    1
    35     5     6    1
    36    36    37   ar
    37    37    38   ar
    38    38    34   ar
    39    31    26   ar
    40     6     1    1
    41    15     7    1
    42    23    16   ar
@<TRIPOS>MOLECULE
*****
 38 42 0 0 0
SMALL
GASTEIGER

@<TRIPOS>ATOM
      1 C         140.7414  143.7671  158.8178 C.3     1  UNL1        0.0759
      2 C         139.5015  143.1375  159.3801 C.3     1  UNL1        0.0371
      3 C         139.3419  142.9904  160.8643 C.3     1  UNL1        0.0737
      4 N         140.4222  143.4729  161.7863 N.3     1  UNL1       -0.2750
      5 C         141.6622  144.1026  161.2240 C.3     1  UNL1        0.0737
      6 C         141.8218  144.2496  159.7398 C.3     1  UNL1        0.0371
      7 C         140.2625  143.3259  163.2705 C.3     1  UNL1        0.0487
      8 C         139.4468  144.5638  163.0421 C.3     1  UNL1        0.0161
      9 C         141.1337  142.1391  162.9833 C.3     1  UNL1        0.0362
     10 C         141.5620  141.2351  164.1011 C.3     1  UNL1        0.0951
     11 N         141.1191  141.5179  165.5060 N.am    1  UNL1       -0.2758
     12 C         141.5474  140.6139  166.6238 C.2     1  UNL1        0.2542
     13 O         142.4186  139.4271  166.3366 O.2     1  UNL1       -0.2697
     14 C         140.2479  142.7047  165.7932 C.3     1  UNL1        0.0951
     15 C         139.8196  143.6087  164.6754 C.3     1  UNL1        0.0362
     16 C         141.1044  140.8968  168.0287 C.ar    1  UNL1        0.1099
     17 C         141.9560  141.7434  168.9276 C.ar    1  UNL1       -0.0058
     18 C         143.2508  142.3071  168.4216 C.3     1  UNL1        0.0316
     19 C         141.5129  142.0262  170.3325 C.ar    1  UNL1        0.0730
     20 C         140.2183  141.4626  170.8385 C.ar    1  UNL1        0.3010
     21 N         139.3666  140.6160  169.9395 N.ar    1  UNL1       -0.1606
     22 O         138.0719  140.0523  170.4455 O.co2   1  UNL1       -0.6190
     23 C         139.8097  140.3331  168.5347 C.ar    1  UNL1        0.2180
     24 C         138.9580  139.4866  167.6358 C.3     1  UNL1        0.1093
     25 N         140.9010  143.9141  157.3336 N.pl3   1  UNL1       -0.3039
     26 C         140.0428  144.8863  156.5797 C.ar    1  UNL1        0.0481
     27 C         140.3797  146.3479  156.5886 C.ar    1  UNL1        0.0145
     28 C         139.5215  147.3200  155.8347 C.ar    1  UNL1        0.0013
     29 C         138.3263  146.8304  155.0718 C.ar    1  UNL1        0.0001
     30 C         137.9894  145.3688  155.0629 C.ar    1  UNL1        0.0013
     31 C         138.8476  144.3968  155.8169 C.ar    1  UNL1        0.0145
     32 C         141.9189  143.0891  156.6034 C.3     1  UNL1        0.1376
     33 C         141.4120  137.9126  157.5135 C.3     1  UNL1        0.0594
     34 C         141.9690  139.3044  157.4634 C.ar    1  UNL1        0.0883
     35 N         141.2864  140.5069  156.8817 N.ar    1  UNL1       -0.2453
     36 C         142.2020  141.6838  157.0451 C.ar    1  UNL1        0.0856
     37 C         143.4504  141.2088  157.7277 C.ar    1  UNL1        0.0530
     38 S         143.3064  139.7383  157.9862 S.2     1  UNL1       -0.0705
@<TRIPOS>UNITY_ATOM_ATTR
21 1
charge 1
22 1
charge -1
@<TRIPOS>BOND
     1    33    34    1
     2    34    35   ar
     3    35    36   ar
     4    36    32    1
     5    32    25    1
     6    25    26    1
     7    26    27   ar
     8    27    28   ar
     9    28    29   ar
    10    29    30   ar
    11    30    31   ar
    12    25     1    1
    13     1     2    1
    14     2     3    1
    15     3     4    1
    16     4     7    1
    17     7     8    1
    18     7     9    1
    19     9    10    1
    20    10    11    1
    21    11    12   am
    22    12    13    2
    23    12    16    1
    24    16    17   ar
    25    17    18    1
    26    17    19   ar
    27    19    20   ar
    28    20    21   ar
    29    21    22    1
    30    21    23   ar
    31    23    24    1
    32    11    14    1
    33    14    15    1
    34     4     5    1
    35     5     6    1
    36    36    37   ar
    37    37    38   ar
    38    38    34   ar
    39    31    26   ar
    40     6     1    1
    41    15     7    1
    42    23    16   ar
