@<TRIPOS>MOLECULE
*****
 34 38 0 0 0
SMALL
GASTEIGER

@<TRIPOS>ATOM
      1 C         140.9563  139.4062  159.9946 C.ar    1  UNL1        0.1233
      2 C         141.1464  138.9886  161.4227 C.ar    1  UNL1        0.1180
      3 N         140.9209  140.1906  162.2911 N.ar    1  UNL1       -0.2233
      4 N         140.5914  141.3512  161.3997 N.ar    1  UNL1       -0.0634
      5 N         140.6133  140.8664  159.9804 N.ar    1  UNL1       -0.1287
      6 C         141.0093  140.2259  163.7881 C.3     1  UNL1        0.1834
      7 C         142.3433  140.6160  164.3522 C.3     1  UNL1        0.0386
      8 C         142.7495  140.7430  165.7906 C.3     1  UNL1        0.0301
      9 C         141.9220  140.5113  167.0201 C.ar    1  UNL1       -0.0084
     10 C         142.7176  140.7498  168.2691 C.ar    1  UNL1       -0.0030
     11 C         142.0751  140.5725  169.6128 C.ar    1  UNL1       -0.0002
     12 C         140.6370  140.1565  169.7076 C.ar    1  UNL1        0.0013
     13 C         139.8415  139.9180  168.4586 C.ar    1  UNL1        0.0146
     14 C         140.4839  140.0954  167.1148 C.ar    1  UNL1        0.0500
     15 N         139.5182  139.8084  166.0035 N.am    1  UNL1       -0.2545
     16 C         139.7519  139.8665  164.5229 C.2     1  UNL1        0.2518
     17 O         138.5725  139.5193  163.6637 O.2     1  UNL1       -0.2724
     18 C         138.1359  139.4108  166.4289 C.3     1  UNL1        0.1363
     19 C         137.8051  137.9639  166.6464 C.3     1  UNL1        0.2150
     20 F         138.3539  136.9214  165.7181 F       1  UNL1       -0.2324
     21 C         140.0050  137.2940  156.7723 C.ar    1  UNL1        0.1547
     22 C         139.8748  138.1808  157.9749 C.ar    1  UNL1        0.0400
     23 C         141.0864  138.5193  158.7918 C.ar    1  UNL1        0.0241
     24 C         142.4282  137.9709  158.4060 C.ar    1  UNL1        0.0033
     25 C         142.5583  137.0841  157.2033 C.ar    1  UNL1        0.0207
     26 C         141.3467  136.7456  156.3865 C.ar    1  UNL1        0.0994
     27 N         141.4769  135.8587  155.1837 N.ar    1  UNL1       -0.2839
     28 C         141.6903  136.3148  153.7708 C.ar    1  UNL1        0.1826
     29 N         141.7618  135.0980  152.8967 N.ar    1  UNL1       -0.2280
     30 C         141.5926  133.8898  153.7693 C.ar    1  UNL1        0.0786
     31 C         141.5985  132.4621  153.3093 C.3     1  UNL1        0.0538
     32 C         141.4165  134.3599  155.1828 C.ar    1  UNL1        0.0963
     33 C         138.3958  137.8317  154.8046 C.3     1  UNL1        0.2525
     34 O         138.7933  136.9555  155.9554 O.3     1  UNL1       -0.4700
@<TRIPOS>BOND
     1    33    34    1
     2    34    21    1
     3    21    22   ar
     4    22    23   ar
     5    23     1    1
     6     1     2   ar
     7     2     3   ar
     8     3     6    1
     9     6     7    1
    10     7     8    1
    11     8     9    1
    12     9    10   ar
    13    10    11   ar
    14    11    12   ar
    15    12    13   ar
    16    13    14   ar
    17    14    15    1
    18    15    18    1
    19    18    19    1
    20    19    20    1
    21    15    16   am
    22    16    17    2
    23     3     4   ar
    24     4     5   ar
    25    23    24   ar
    26    24    25   ar
    27    25    26   ar
    28    26    27    1
    29    27    28   ar
    30    28    29   ar
    31    29    30   ar
    32    30    31    1
    33    30    32   ar
    34    26    21   ar
    35    32    27   ar
    36     5     1   ar
    37    16     6    1
    38    14     9   ar
@<TRIPOS>MOLECULE
*****
 34 38 0 0 0
SMALL
GASTEIGER

@<TRIPOS>ATOM
      1 C         143.1204  138.3337  159.6684 C.ar    1  UNL1        0.1233
      2 C         142.5995  137.0956  159.0008 C.ar    1  UNL1        0.1180
      3 N         142.8614  137.2175  157.5289 N.ar    1  UNL1       -0.2233
      4 N         143.5441  138.5309  157.2868 N.ar    1  UNL1       -0.0634
      5 N         143.7042  139.2208  158.6091 N.ar    1  UNL1       -0.1287
      6 C         142.5034  136.2039  156.4827 C.3     1  UNL1        0.1834
      7 C         141.7703  136.7344  155.2864 C.3     1  UNL1        0.0386
      8 C         141.2786  135.9858  154.0831 C.3     1  UNL1        0.0301
      9 C         141.3985  134.5219  153.7789 C.ar    1  UNL1       -0.0084
     10 C         140.7678  134.1826  152.4609 C.ar    1  UNL1       -0.0030
     11 C         140.7784  132.7663  151.9670 C.ar    1  UNL1       -0.0002
     12 C         141.4196  131.6894  152.7910 C.ar    1  UNL1        0.0013
     13 C         142.0503  132.0287  154.1089 C.ar    1  UNL1        0.0146
     14 C         142.0397  133.4449  154.6029 C.ar    1  UNL1        0.0500
     15 N         142.7194  133.5660  155.9346 N.am    1  UNL1       -0.2545
     16 C         142.9258  134.7938  156.7712 C.2     1  UNL1        0.2518
     17 O         143.6503  134.5837  158.0677 O.2     1  UNL1       -0.2724
     18 C         143.2649  132.2905  156.5051 C.3     1  UNL1        0.1363
     19 C         144.7204  131.9618  156.3508 C.3     1  UNL1        0.2150
     20 F         145.1485  130.8789  155.4053 F       1  UNL1       -0.2324
     21 C         144.2032  139.5325  163.2933 C.ar    1  UNL1        0.1547
     22 C         144.2568  139.2340  161.8244 C.ar    1  UNL1        0.0400
     23 C         143.0668  138.6322  161.1374 C.ar    1  UNL1        0.0241
     24 C         141.8233  138.3290  161.9195 C.ar    1  UNL1        0.0033
     25 C         141.7697  138.6276  163.3885 C.ar    1  UNL1        0.0207
     26 C         142.9596  139.2293  164.0754 C.ar    1  UNL1        0.0994
     27 N         142.9060  139.5279  165.5445 N.ar    1  UNL1       -0.2839
     28 C         143.1873  138.5566  166.6524 C.ar    1  UNL1        0.1826
     29 N         143.0168  139.2786  167.9561 N.ar    1  UNL1       -0.2280
     30 C         142.6302  140.6960  167.6539 C.ar    1  UNL1        0.0786
     31 C         142.3595  141.7707  168.6648 C.3     1  UNL1        0.0538
     32 C         142.5617  140.8501  166.1635 C.ar    1  UNL1        0.0963
     33 C         145.7043  141.5909  163.8028 C.3     1  UNL1        0.2525
     34 O         145.3931  140.1343  163.9802 O.3     1  UNL1       -0.4700
@<TRIPOS>BOND
     1    33    34    1
     2    34    21    1
     3    21    22   ar
     4    22    23   ar
     5    23     1    1
     6     1     2   ar
     7     2     3   ar
     8     3     6    1
     9     6     7    1
    10     7     8    1
    11     8     9    1
    12     9    10   ar
    13    10    11   ar
    14    11    12   ar
    15    12    13   ar
    16    13    14   ar
    17    14    15    1
    18    15    18    1
    19    18    19    1
    20    19    20    1
    21    15    16   am
    22    16    17    2
    23     3     4   ar
    24     4     5   ar
    25    23    24   ar
    26    24    25   ar
    27    25    26   ar
    28    26    27    1
    29    27    28   ar
    30    28    29   ar
    31    29    30   ar
    32    30    31    1
    33    30    32   ar
    34    26    21   ar
    35    32    27   ar
    36     5     1   ar
    37    16     6    1
    38    14     9   ar
@<TRIPOS>MOLECULE
*****
 34 38 0 0 0
SMALL
GASTEIGER

@<TRIPOS>ATOM
      1 C         143.0454  138.1346  160.0001 C.ar    1  UNL1        0.1233
      2 C         142.7241  136.8642  159.2702 C.ar    1  UNL1        0.1180
      3 N         143.0038  137.0834  157.8129 N.ar    1  UNL1       -0.2233
      4 N         143.4980  138.4893  157.6422 N.ar    1  UNL1       -0.0634
      5 N         143.5237  139.1390  158.9939 N.ar    1  UNL1       -0.1287
      6 C         142.8213  136.0740  156.7185 C.3     1  UNL1        0.1834
      7 C         142.2956  136.6099  155.4198 C.3     1  UNL1        0.0386
      8 C         142.0075  135.8663  154.1494 C.3     1  UNL1        0.0301
      9 C         142.1737  134.4031  153.8638 C.ar    1  UNL1       -0.0084
     10 C         141.7679  134.0694  152.4588 C.ar    1  UNL1       -0.0030
     11 C         141.8576  132.6548  151.9683 C.ar    1  UNL1       -0.0002
     12 C         142.3531  131.5739  152.8826 C.ar    1  UNL1        0.0013
     13 C         142.7589  131.9076  154.2876 C.ar    1  UNL1        0.0146
     14 C         142.6692  133.3222  154.7782 C.ar    1  UNL1        0.0500
     15 N         143.1208  133.4375  156.2039 N.am    1  UNL1       -0.2545
     16 C         143.1885  134.6621  157.0675 C.2     1  UNL1        0.2518
     17 O         143.6897  134.4464  158.4647 O.2     1  UNL1       -0.2724
     18 C         143.5633  132.1590  156.8518 C.3     1  UNL1        0.1363
     19 C         145.0258  131.8635  157.0065 C.3     1  UNL1        0.2150
     20 F         145.5249  131.1732  158.2412 F       1  UNL1       -0.2324
     21 C         141.6140  138.0057  163.6993 C.ar    1  UNL1        0.1547
     22 C         141.7474  137.7794  162.2225 C.ar    1  UNL1        0.0400
     23 C         142.9120  138.3608  161.4769 C.ar    1  UNL1        0.0241
     24 C         143.9430  139.1685  162.2081 C.ar    1  UNL1        0.0033
     25 C         143.8095  139.3947  163.6850 C.ar    1  UNL1        0.0207
     26 C         142.6450  138.8133  164.4305 C.ar    1  UNL1        0.0994
     27 N         142.5116  139.0396  165.9074 N.ar    1  UNL1       -0.2839
     28 C         143.4393  138.5217  166.9662 C.ar    1  UNL1        0.1826
     29 N         142.9280  138.9855  168.2978 N.ar    1  UNL1       -0.2280
     30 C         141.6843  139.7901  168.0621 C.ar    1  UNL1        0.0786
     31 C         140.8452  140.4462  169.1183 C.3     1  UNL1        0.0538
     32 C         141.4269  139.8236  166.5848 C.ar    1  UNL1        0.0963
     33 C         139.0485  137.7674  164.0332 C.3     1  UNL1        0.2525
     34 O         140.4495  137.4243  164.4449 O.3     1  UNL1       -0.4700
@<TRIPOS>BOND
     1    33    34    1
     2    34    21    1
     3    21    22   ar
     4    22    23   ar
     5    23     1    1
     6     1     2   ar
     7     2     3   ar
     8     3     6    1
     9     6     7    1
    10     7     8    1
    11     8     9    1
    12     9    10   ar
    13    10    11   ar
    14    11    12   ar
    15    12    13   ar
    16    13    14   ar
    17    14    15    1
    18    15    18    1
    19    18    19    1
    20    19    20    1
    21    15    16   am
    22    16    17    2
    23     3     4   ar
    24     4     5   ar
    25    23    24   ar
    26    24    25   ar
    27    25    26   ar
    28    26    27    1
    29    27    28   ar
    30    28    29   ar
    31    29    30   ar
    32    30    31    1
    33    30    32   ar
    34    26    21   ar
    35    32    27   ar
    36     5     1   ar
    37    16     6    1
    38    14     9   ar
@<TRIPOS>MOLECULE
*****
 34 38 0 0 0
SMALL
GASTEIGER

@<TRIPOS>ATOM
      1 C         142.2607  138.8836  157.9803 C.ar    1  UNL1        0.1233
      2 C         141.7432  137.6010  157.3997 C.ar    1  UNL1        0.1180
      3 N         142.7887  137.0570  156.4717 N.ar    1  UNL1       -0.2233
      4 N         143.9523  138.0035  156.4787 N.ar    1  UNL1       -0.0634
      5 N         143.6261  139.1324  157.4111 N.ar    1  UNL1       -0.1287
      6 C         142.6881  135.7893  155.6763 C.3     1  UNL1        0.1834
      7 C         142.1878  135.9410  154.2704 C.3     1  UNL1        0.0386
      8 C         141.9770  134.8783  153.2330 C.3     1  UNL1        0.0301
      9 C         142.2144  133.4014  153.3452 C.ar    1  UNL1       -0.0084
     10 C         141.8739  132.6930  152.0677 C.ar    1  UNL1       -0.0030
     11 C         142.0402  131.2056  151.9676 C.ar    1  UNL1       -0.0002
     12 C         142.5472  130.4267  153.1450 C.ar    1  UNL1        0.0013
     13 C         142.8877  131.1352  154.4225 C.ar    1  UNL1        0.0146
     14 C         142.7213  132.6225  154.5226 C.ar    1  UNL1        0.0500
     15 N         143.1160  133.1282  155.8786 N.am    1  UNL1       -0.2545
     16 C         143.1012  134.5374  156.3921 C.2     1  UNL1        0.2518
     17 O         143.5602  134.7189  157.8085 O.2     1  UNL1       -0.2724
     18 C         143.5878  132.0867  156.8495 C.3     1  UNL1        0.1363
     19 C         145.0551  131.8168  157.0058 C.3     1  UNL1        0.2150
     20 F         145.7953  132.3595  158.1922 F       1  UNL1       -0.2324
     21 C         140.0426  140.0304  161.0648 C.ar    1  UNL1        0.1547
     22 C         140.7638  139.1509  160.0868 C.ar    1  UNL1        0.0400
     23 C         141.5395  139.7630  158.9583 C.ar    1  UNL1        0.0241
     24 C         141.5941  141.2544  158.8077 C.ar    1  UNL1        0.0033
     25 C         140.8729  142.1338  159.7858 C.ar    1  UNL1        0.0207
     26 C         140.0972  141.5218  160.9143 C.ar    1  UNL1        0.0994
     27 N         139.3760  142.4013  161.8923 N.ar    1  UNL1       -0.2839
     28 C         137.9141  142.7364  161.8653 C.ar    1  UNL1        0.1826
     29 N         137.6248  143.6422  163.0253 N.ar    1  UNL1       -0.2280
     30 C         138.9077  143.8669  163.7693 C.ar    1  UNL1        0.0786
     31 C         139.0784  144.7105  164.9978 C.3     1  UNL1        0.0538
     32 C         139.9901  143.1000  163.0690 C.ar    1  UNL1        0.0963
     33 C         138.1334  138.4800  161.9022 C.3     1  UNL1        0.2525
     34 O         139.2668  139.4183  162.1933 O.3     1  UNL1       -0.4700
@<TRIPOS>BOND
     1    33    34    1
     2    34    21    1
     3    21    22   ar
     4    22    23   ar
     5    23     1    1
     6     1     2   ar
     7     2     3   ar
     8     3     6    1
     9     6     7    1
    10     7     8    1
    11     8     9    1
    12     9    10   ar
    13    10    11   ar
    14    11    12   ar
    15    12    13   ar
    16    13    14   ar
    17    14    15    1
    18    15    18    1
    19    18    19    1
    20    19    20    1
    21    15    16   am
    22    16    17    2
    23     3     4   ar
    24     4     5   ar
    25    23    24   ar
    26    24    25   ar
    27    25    26   ar
    28    26    27    1
    29    27    28   ar
    30    28    29   ar
    31    29    30   ar
    32    30    31    1
    33    30    32   ar
    34    26    21   ar
    35    32    27   ar
    36     5     1   ar
    37    16     6    1
    38    14     9   ar
@<TRIPOS>MOLECULE
*****
 34 38 0 0 0
SMALL
GASTEIGER

@<TRIPOS>ATOM
      1 C         141.0333  142.6616  160.6948 C.ar    1  UNL1        0.1233
      2 C         140.6189  142.8966  162.1171 C.ar    1  UNL1        0.1180
      3 N         141.0428  141.7068  162.9262 N.ar    1  UNL1       -0.2233
      4 N         141.7193  140.7364  162.0039 N.ar    1  UNL1       -0.0634
      5 N         141.7134  141.3264  160.6248 N.ar    1  UNL1       -0.1287
      6 C         140.8280  141.5202  164.3989 C.3     1  UNL1        0.1834
      7 C         141.7434  142.3015  165.2943 C.3     1  UNL1        0.0386
      8 C         141.7830  142.3324  166.7934 C.3     1  UNL1        0.0301
      9 C         140.9171  141.5899  167.7675 C.ar    1  UNL1       -0.0084
     10 C         141.2908  141.9068  169.1852 C.ar    1  UNL1       -0.0030
     11 C         140.5450  141.2667  170.3184 C.ar    1  UNL1       -0.0002
     12 C         139.4255  140.3097  170.0338 C.ar    1  UNL1        0.0013
     13 C         139.0518  139.9928  168.6161 C.ar    1  UNL1        0.0146
     14 C         139.7976  140.6329  167.4830 C.ar    1  UNL1        0.0500
     15 N         139.2676  140.1822  166.1541 N.am    1  UNL1       -0.2545
     16 C         139.7261  140.5770  164.7815 C.2     1  UNL1        0.2518
     17 O         138.9848  139.9452  163.6408 O.2     1  UNL1       -0.2724
     18 C         138.1284  139.2077  166.2044 C.3     1  UNL1        0.1363
     19 C         138.3763  137.7501  165.9507 C.3     1  UNL1        0.2150
     20 F         137.6022  136.7143  166.7108 F       1  UNL1       -0.2324
     21 C         139.6018  144.1740  157.3165 C.ar    1  UNL1        0.1547
     22 C         139.8277  143.2382  158.4667 C.ar    1  UNL1        0.0400
     23 C         140.8074  143.5973  159.5444 C.ar    1  UNL1        0.0241
     24 C         141.5610  144.8922  159.4718 C.ar    1  UNL1        0.0033
     25 C         141.3350  145.8280  158.3215 C.ar    1  UNL1        0.0207
     26 C         140.3555  145.4689  157.2438 C.ar    1  UNL1        0.0994
     27 N         140.1295  146.4047  156.0935 N.ar    1  UNL1       -0.2839
     28 C         139.0724  147.4659  156.0147 C.ar    1  UNL1        0.1826
     29 N         139.2106  148.1606  154.6925 N.ar    1  UNL1       -0.2280
     30 C         140.3532  147.5288  153.9541 C.ar    1  UNL1        0.0786
     31 C         140.8421  147.9145  152.5895 C.3     1  UNL1        0.0538
     32 C         140.9212  146.4436  154.8200 C.ar    1  UNL1        0.0963
     33 C         139.0403  142.9134  155.1152 C.3     1  UNL1        0.2525
     34 O         138.6222  143.8149  156.2388 O.3     1  UNL1       -0.4700
@<TRIPOS>BOND
     1    33    34    1
     2    34    21    1
     3    21    22   ar
     4    22    23   ar
     5    23     1    1
     6     1     2   ar
     7     2     3   ar
     8     3     6    1
     9     6     7    1
    10     7     8    1
    11     8     9    1
    12     9    10   ar
    13    10    11   ar
    14    11    12   ar
    15    12    13   ar
    16    13    14   ar
    17    14    15    1
    18    15    18    1
    19    18    19    1
    20    19    20    1
    21    15    16   am
    22    16    17    2
    23     3     4   ar
    24     4     5   ar
    25    23    24   ar
    26    24    25   ar
    27    25    26   ar
    28    26    27    1
    29    27    28   ar
    30    28    29   ar
    31    29    30   ar
    32    30    31    1
    33    30    32   ar
    34    26    21   ar
    35    32    27   ar
    36     5     1   ar
    37    16     6    1
    38    14     9   ar
@<TRIPOS>MOLECULE
*****
 34 38 0 0 0
SMALL
GASTEIGER

@<TRIPOS>ATOM
      1 C         142.8228  138.1279  159.2439 C.ar    1  UNL1        0.1233
      2 C         142.2535  137.9787  160.6236 C.ar    1  UNL1        0.1180
      3 N         142.8049  139.0839  161.4746 N.ar    1  UNL1       -0.2233
      4 N         143.7150  139.9163  160.6209 N.ar    1  UNL1       -0.0634
      5 N         143.7261  139.3254  159.2422 N.ar    1  UNL1       -0.1287
      6 C         142.4997  139.3161  162.9248 C.3     1  UNL1        0.1834
      7 C         143.4872  138.7427  163.8976 C.3     1  UNL1        0.0386
      8 C         143.4662  138.8027  165.3962 C.3     1  UNL1        0.0301
      9 C         142.4527  139.4507  166.2923 C.ar    1  UNL1       -0.0084
     10 C         142.8100  139.2777  167.7388 C.ar    1  UNL1       -0.0030
     11 C         141.9243  139.8528  168.8040 C.ar    1  UNL1       -0.0002
     12 C         140.6814  140.6010  168.4227 C.ar    1  UNL1        0.0013
     13 C         140.3242  140.7740  166.9762 C.ar    1  UNL1        0.0146
     14 C         141.2098  140.1989  165.9110 C.ar    1  UNL1        0.0500
     15 N         140.6735  140.4838  164.5394 N.am    1  UNL1       -0.2545
     16 C         141.2475  140.0910  163.2104 C.2     1  UNL1        0.2518
     17 O         140.4660  140.5312  162.0082 O.2     1  UNL1       -0.2724
     18 C         139.3939  141.2649  164.4904 C.3     1  UNL1        0.1363
     19 C         138.0794  140.5468  164.4086 C.3     1  UNL1        0.2150
     20 F         137.6935  139.5652  165.4750 F       1  UNL1       -0.2324
     21 C         143.0691  135.1030  156.6867 C.ar    1  UNL1        0.1547
     22 C         143.3533  135.9947  157.8589 C.ar    1  UNL1        0.0400
     23 C         142.5387  137.2361  158.0717 C.ar    1  UNL1        0.0241
     24 C         141.4400  137.5859  157.1122 C.ar    1  UNL1        0.0033
     25 C         141.1559  136.6941  155.9400 C.ar    1  UNL1        0.0207
     26 C         141.9704  135.4527  155.7273 C.ar    1  UNL1        0.0994
     27 N         141.6863  134.5610  154.5550 N.ar    1  UNL1       -0.2839
     28 C         141.8889  134.9118  153.1108 C.ar    1  UNL1        0.1826
     29 N         141.4775  133.7295  152.2845 N.ar    1  UNL1       -0.2280
     30 C         141.0205  132.6480  153.2179 C.ar    1  UNL1        0.0786
     31 C         140.5220  131.2908  152.8183 C.3     1  UNL1        0.0538
     32 C         141.1495  133.1618  154.6212 C.ar    1  UNL1        0.0963
     33 C         144.4112  133.0993  157.6533 C.3     1  UNL1        0.2525
     34 O         143.8837  133.8615  156.4740 O.3     1  UNL1       -0.4700
@<TRIPOS>BOND
     1    33    34    1
     2    34    21    1
     3    21    22   ar
     4    22    23   ar
     5    23     1    1
     6     1     2   ar
     7     2     3   ar
     8     3     6    1
     9     6     7    1
    10     7     8    1
    11     8     9    1
    12     9    10   ar
    13    10    11   ar
    14    11    12   ar
    15    12    13   ar
    16    13    14   ar
    17    14    15    1
    18    15    18    1
    19    18    19    1
    20    19    20    1
    21    15    16   am
    22    16    17    2
    23     3     4   ar
    24     4     5   ar
    25    23    24   ar
    26    24    25   ar
    27    25    26   ar
    28    26    27    1
    29    27    28   ar
    30    28    29   ar
    31    29    30   ar
    32    30    31    1
    33    30    32   ar
    34    26    21   ar
    35    32    27   ar
    36     5     1   ar
    37    16     6    1
    38    14     9   ar
@<TRIPOS>MOLECULE
*****
 34 38 0 0 0
SMALL
GASTEIGER

@<TRIPOS>ATOM
      1 C         140.5188  139.4129  159.7932 C.ar    1  UNL1        0.1233
      2 C         140.7587  139.0534  161.2296 C.ar    1  UNL1        0.1180
      3 N         140.3754  140.2332  162.0730 N.ar    1  UNL1       -0.2233
      4 N         139.8987  141.3218  161.1578 N.ar    1  UNL1       -0.0634
      5 N         139.9873  140.8149  159.7489 N.ar    1  UNL1       -0.1287
      6 C         140.4550  140.3107  163.5689 C.3     1  UNL1        0.1834
      7 C         139.2527  139.8076  164.3115 C.3     1  UNL1        0.0386
      8 C         139.0248  139.7506  165.7930 C.3     1  UNL1        0.0301
      9 C         139.9428  140.1826  166.8978 C.ar    1  UNL1       -0.0084
     10 C         139.3254  139.9519  168.2452 C.ar    1  UNL1       -0.0030
     11 C         140.0806  140.3169  169.4887 C.ar    1  UNL1       -0.0002
     12 C         141.4533  140.9126  169.3848 C.ar    1  UNL1        0.0013
     13 C         142.0708  141.1433  168.0375 C.ar    1  UNL1        0.0146
     14 C         141.3156  140.7783  166.7940 C.ar    1  UNL1        0.0500
     15 N         142.1092  141.0891  165.5596 N.am    1  UNL1       -0.2545
     16 C         141.7263  140.8811  164.1243 C.2     1  UNL1        0.2518
     17 O         142.7499  141.2985  163.1105 O.2     1  UNL1       -0.2724
     18 C         143.4652  141.6872  165.7913 C.3     1  UNL1        0.1363
     19 C         143.6977  143.1449  165.5245 C.3     1  UNL1        0.2150
     20 F         145.0141  143.7713  165.8774 F       1  UNL1       -0.2324
     21 C         139.8714  137.2193  156.5500 C.ar    1  UNL1        0.1547
     22 C         139.6233  138.1060  157.7341 C.ar    1  UNL1        0.0400
     23 C         140.7668  138.5261  158.6092 C.ar    1  UNL1        0.0241
     24 C         142.1585  138.0594  158.3002 C.ar    1  UNL1        0.0033
     25 C         142.4065  137.1727  157.1161 C.ar    1  UNL1        0.0207
     26 C         141.2630  136.7526  156.2411 C.ar    1  UNL1        0.0994
     27 N         141.5112  135.8658  155.0569 N.ar    1  UNL1       -0.2839
     28 C         141.6093  136.3102  153.6277 C.ar    1  UNL1        0.1826
     29 N         141.8635  135.0979  152.7817 N.ar    1  UNL1       -0.2280
     30 C         141.9225  133.9043  153.6880 C.ar    1  UNL1        0.0786
     31 C         142.1579  132.4851  153.2629 C.3     1  UNL1        0.0538
     32 C         141.7047  134.3788  155.0943 C.ar    1  UNL1        0.0963
     33 C         138.1723  137.7517  154.6581 C.3     1  UNL1        0.2525
     34 O         138.7278  136.7992  155.6749 O.3     1  UNL1       -0.4700
@<TRIPOS>BOND
     1    33    34    1
     2    34    21    1
     3    21    22   ar
     4    22    23   ar
     5    23     1    1
     6     1     2   ar
     7     2     3   ar
     8     3     6    1
     9     6     7    1
    10     7     8    1
    11     8     9    1
    12     9    10   ar
    13    10    11   ar
    14    11    12   ar
    15    12    13   ar
    16    13    14   ar
    17    14    15    1
    18    15    18    1
    19    18    19    1
    20    19    20    1
    21    15    16   am
    22    16    17    2
    23     3     4   ar
    24     4     5   ar
    25    23    24   ar
    26    24    25   ar
    27    25    26   ar
    28    26    27    1
    29    27    28   ar
    30    28    29   ar
    31    29    30   ar
    32    30    31    1
    33    30    32   ar
    34    26    21   ar
    35    32    27   ar
    36     5     1   ar
    37    16     6    1
    38    14     9   ar
@<TRIPOS>MOLECULE
*****
 34 38 0 0 0
SMALL
GASTEIGER

@<TRIPOS>ATOM
      1 C         139.5457  143.1220  160.2714 C.ar    1  UNL1        0.1233
      2 C         140.3784  143.1892  161.5172 C.ar    1  UNL1        0.1180
      3 N         139.7813  142.2525  162.5251 N.ar    1  UNL1       -0.2233
      4 N         138.5795  141.6062  161.9022 N.ar    1  UNL1       -0.0634
      5 N         138.4339  142.1436  160.5093 N.ar    1  UNL1       -0.1287
      6 C         140.2956  142.0053  163.9123 C.3     1  UNL1        0.1834
      7 C         139.8765  143.0047  164.9494 C.3     1  UNL1        0.0386
      8 C         140.2194  143.0370  166.4094 C.3     1  UNL1        0.0301
      9 C         141.0659  142.0780  167.1928 C.ar    1  UNL1       -0.0084
     10 C         141.1549  142.4781  168.6357 C.ar    1  UNL1       -0.0030
     11 C         141.9567  141.6500  169.5955 C.ar    1  UNL1       -0.0002
     12 C         142.6696  140.4218  169.1124 C.ar    1  UNL1        0.0013
     13 C         142.5805  140.0217  167.6695 C.ar    1  UNL1        0.0146
     14 C         141.7787  140.8498  166.7097 C.ar    1  UNL1        0.0500
     15 N         141.8210  140.2773  165.3239 N.am    1  UNL1       -0.2545
     16 C         141.1610  140.7915  164.0789 C.2     1  UNL1        0.2518
     17 O         141.3976  139.9853  162.8363 O.2     1  UNL1       -0.2724
     18 C         142.6304  139.0249  165.1616 C.3     1  UNL1        0.1363
     19 C         144.0161  139.0959  164.5915 C.3     1  UNL1        0.2150
     20 F         145.1944  138.7048  165.4333 F       1  UNL1       -0.2324
     21 C         139.3263  144.2716  156.4793 C.ar    1  UNL1        0.1547
     22 C         139.0888  143.4965  157.7413 C.ar    1  UNL1        0.0400
     23 C         139.7831  143.8970  159.0092 C.ar    1  UNL1        0.0241
     24 C         140.7149  145.0724  159.0150 C.ar    1  UNL1        0.0033
     25 C         140.9524  145.8475  157.7529 C.ar    1  UNL1        0.0207
     26 C         140.2581  145.4470  156.4851 C.ar    1  UNL1        0.0994
     27 N         140.4956  146.2221  155.2229 N.ar    1  UNL1       -0.2839
     28 C         141.3641  145.7958  154.0766 C.ar    1  UNL1        0.1826
     29 N         141.3115  146.8698  153.0309 N.ar    1  UNL1       -0.2280
     30 C         140.4105  147.9598  153.5307 C.ar    1  UNL1        0.0786
     31 C         140.0730  149.2276  152.8035 C.3     1  UNL1        0.0538
     32 C         139.9062  147.5596  154.8855 C.ar    1  UNL1        0.0963
     33 C         137.3304  144.5140  154.8338 C.3     1  UNL1        0.2525
     34 O         138.6320  143.8711  155.2114 O.3     1  UNL1       -0.4700
@<TRIPOS>BOND
     1    33    34    1
     2    34    21    1
     3    21    22   ar
     4    22    23   ar
     5    23     1    1
     6     1     2   ar
     7     2     3   ar
     8     3     6    1
     9     6     7    1
    10     7     8    1
    11     8     9    1
    12     9    10   ar
    13    10    11   ar
    14    11    12   ar
    15    12    13   ar
    16    13    14   ar
    17    14    15    1
    18    15    18    1
    19    18    19    1
    20    19    20    1
    21    15    16   am
    22    16    17    2
    23     3     4   ar
    24     4     5   ar
    25    23    24   ar
    26    24    25   ar
    27    25    26   ar
    28    26    27    1
    29    27    28   ar
    30    28    29   ar
    31    29    30   ar
    32    30    31    1
    33    30    32   ar
    34    26    21   ar
    35    32    27   ar
    36     5     1   ar
    37    16     6    1
    38    14     9   ar
@<TRIPOS>MOLECULE
*****
 34 38 0 0 0
SMALL
GASTEIGER

@<TRIPOS>ATOM
      1 C         143.0480  139.5898  161.3116 C.ar    1  UNL1        0.1233
      2 C         142.7467  140.2758  162.6110 C.ar    1  UNL1        0.1180
      3 N         142.2672  139.2384  163.5826 N.ar    1  UNL1       -0.2233
      4 N         142.2722  137.9113  162.8836 N.ar    1  UNL1       -0.0634
      5 N         142.7548  138.1284  161.4800 N.ar    1  UNL1       -0.1287
      6 C         141.8551  139.4849  165.0037 C.3     1  UNL1        0.1834
      7 C         142.9681  139.7993  165.9589 C.3     1  UNL1        0.0386
      8 C         142.8853  140.0908  167.4279 C.3     1  UNL1        0.0301
      9 C         141.6692  140.1400  168.3047 C.ar    1  UNL1       -0.0084
     10 C         142.0292  140.4686  169.7232 C.ar    1  UNL1       -0.0030
     11 C         140.9554  140.5669  170.7659 C.ar    1  UNL1       -0.0002
     12 C         139.5217  140.3366  170.3901 C.ar    1  UNL1        0.0013
     13 C         139.1617  140.0080  168.9715 C.ar    1  UNL1        0.0146
     14 C         140.2354  139.9097  167.9288 C.ar    1  UNL1        0.0500
     15 N         139.6637  139.5734  166.5834 N.am    1  UNL1       -0.2545
     16 C         140.3845  139.3844  165.2816 C.2     1  UNL1        0.2518
     17 O         139.5205  139.0507  164.1017 O.2     1  UNL1       -0.2724
     18 C         138.1742  139.4038  166.5332 C.3     1  UNL1        0.1363
     19 C         137.5624  138.0618  166.8068 C.3     1  UNL1        0.2150
     20 F         138.1231  136.8344  166.1517 F       1  UNL1       -0.2324
     21 C         144.1595  140.1248  157.5396 C.ar    1  UNL1        0.1547
     22 C         143.6537  139.4652  158.7881 C.ar    1  UNL1        0.0400
     23 C         143.5538  140.2494  160.0629 C.ar    1  UNL1        0.0241
     24 C         143.9596  141.6932  160.0891 C.ar    1  UNL1        0.0033
     25 C         144.4654  142.3528  158.8404 C.ar    1  UNL1        0.0207
     26 C         144.5653  141.5686  157.5657 C.ar    1  UNL1        0.0994
     27 N         145.0711  142.2283  156.3170 N.ar    1  UNL1       -0.2839
     28 C         144.2262  142.8284  155.2326 C.ar    1  UNL1        0.1826
     29 N         145.1436  143.3746  154.1790 N.ar    1  UNL1       -0.2280
     30 C         146.5554  143.1122  154.6123 C.ar    1  UNL1        0.0786
     31 C         147.7945  143.4916  153.8568 C.3     1  UNL1        0.0538
     32 C         146.5107  142.4037  155.9337 C.ar    1  UNL1        0.0963
     33 C         143.0449  139.1470  155.4061 C.3     1  UNL1        0.2525
     34 O         144.2594  139.3406  156.2648 O.3     1  UNL1       -0.4700
@<TRIPOS>BOND
     1    33    34    1
     2    34    21    1
     3    21    22   ar
     4    22    23   ar
     5    23     1    1
     6     1     2   ar
     7     2     3   ar
     8     3     6    1
     9     6     7    1
    10     7     8    1
    11     8     9    1
    12     9    10   ar
    13    10    11   ar
    14    11    12   ar
    15    12    13   ar
    16    13    14   ar
    17    14    15    1
    18    15    18    1
    19    18    19    1
    20    19    20    1
    21    15    16   am
    22    16    17    2
    23     3     4   ar
    24     4     5   ar
    25    23    24   ar
    26    24    25   ar
    27    25    26   ar
    28    26    27    1
    29    27    28   ar
    30    28    29   ar
    31    29    30   ar
    32    30    31    1
    33    30    32   ar
    34    26    21   ar
    35    32    27   ar
    36     5     1   ar
    37    16     6    1
    38    14     9   ar
