@<TRIPOS>MOLECULE
*****
 37 41 0 0 0
SMALL
GASTEIGER

@<TRIPOS>ATOM
      1 C         143.4296  143.8625  162.1717 C.3     1  UNL1        0.1565
      2 O         144.9105  144.0237  162.3481 O.3     1  UNL1       -0.3781
      3 C         142.1199  143.3707  161.6307 C.3     1  UNL1        0.0372
      4 C         140.8319  143.8866  162.2007 C.3     1  UNL1        0.0186
      5 C         140.8536  144.8942  163.3118 C.3     1  UNL1        0.0544
      6 C         142.1634  145.3859  163.8527 C.3     1  UNL1        0.0186
      7 C         143.4514  144.8701  163.2827 C.3     1  UNL1        0.0372
      8 H         145.3754  143.4521  161.7173 H       1  UNL1        0.2109
      9 N         143.3395  142.9513  159.7403 N.am    1  UNL1       -0.2808
     10 C         143.9221  142.9109  161.1220 C.2     1  UNL1        0.2502
     11 O         144.9972  141.9189  161.4538 O.2     1  UNL1       -0.2723
     12 H         142.6339  143.6024  159.5224 H       1  UNL1        0.1550
     13 C         141.2183  139.0384  159.0771 C.ar    1  UNL1        0.2251
     14 C         141.7108  138.0868  158.0274 C.ar    1  UNL1        0.0593
     15 C         142.9103  138.4396  157.1987 C.ar    1  UNL1        0.0255
     16 C         143.6174  139.7438  157.4197 C.ar    1  UNL1        0.1004
     17 N         144.8169  140.0966  156.5911 N.ar    1  UNL1       -0.2422
     18 C         145.5240  141.4008  156.8121 C.ar    1  UNL1        0.1002
     19 C         145.0315  142.3525  157.8619 C.ar    1  UNL1        0.0369
     20 C         143.8320  141.9998  158.6905 C.ar    1  UNL1        0.0714
     21 C         143.1249  140.6954  158.4695 C.ar    1  UNL1        0.1154
     22 N         141.9254  140.3427  159.2981 N.ar    1  UNL1       -0.2089
     23 C         138.7652  139.5020  159.7962 C.3     1  UNL1        0.2542
     24 O         140.0188  138.6857  159.9058 O.3     1  UNL1       -0.4561
     25 N         139.5656  145.4100  163.8818 N.3     1  UNL1       -0.2948
     26 H         139.0032  145.7321  163.0942 H       1  UNL1        0.1235
     27 C         138.6906  144.5048  164.6972 C.3     1  UNL1        0.0957
     28 C         138.5639  143.0555  164.3322 C.ar    1  UNL1       -0.0032
     29 C         137.5776  142.6292  163.2855 C.ar    1  UNL1        0.0004
     30 C         137.4509  141.1797  162.9205 C.ar    1  UNL1        0.0398
     31 C         138.3103  140.1568  163.6020 C.ar    1  UNL1        0.1724
     32 C         139.2966  140.5830  164.6487 C.ar    1  UNL1        0.1721
     33 C         139.4233  142.0324  165.0137 C.ar    1  UNL1        0.0371
     34 O         140.1561  139.5600  165.3303 O.3     1  UNL1       -0.4684
     35 C         140.0294  138.1106  164.9653 C.3     1  UNL1        0.2526
     36 C         139.0431  137.6843  163.9186 C.3     1  UNL1        0.2526
     37 O         138.1836  138.7073  163.2370 O.3     1  UNL1       -0.4684
@<TRIPOS>BOND
     1    23    24    1
     2    24    13    1
     3    13    14   ar
     4    14    15   ar
     5    15    16   ar
     6    16    17   ar
     7    17    18   ar
     8    18    19   ar
     9    19    20   ar
    10    20     9    1
    11     9    10   am
    12    10    11    2
    13    10     1    1
    14     1     2    1
    15     1     3    1
    16     3     4    1
    17     4     5    1
    18     5    25    1
    19    25    27    1
    20    27    28    1
    21    28    29   ar
    22    29    30   ar
    23    30    31   ar
    24    31    32   ar
    25    32    33   ar
    26    32    34    1
    27    34    35    1
    28    35    36    1
    29    36    37    1
    30     5     6    1
    31     6     7    1
    32    20    21   ar
    33    21    22   ar
    34    22    13   ar
    35    21    16   ar
    36     7     1    1
    37    33    28   ar
    38    37    31    1
    39     9    12    1
    40     2     8    1
    41    25    26    1
@<TRIPOS>MOLECULE
*****
 37 41 0 0 0
SMALL
GASTEIGER

@<TRIPOS>ATOM
      1 C         138.2807  139.5064  160.8726 C.3     1  UNL1        0.1565
      2 O         136.8516  139.9550  160.9544 O.3     1  UNL1       -0.3781
      3 C         139.6898  139.3729  160.3763 C.3     1  UNL1        0.0372
      4 C         140.6598  138.4880  161.1016 C.3     1  UNL1        0.0186
      5 C         140.2204  137.7366  162.3233 C.3     1  UNL1        0.0544
      6 C         138.8113  137.8701  162.8196 C.3     1  UNL1        0.0186
      7 C         137.8414  138.7550  162.0942 C.3     1  UNL1        0.0372
      8 H         136.6620  140.5651  160.2246 H       1  UNL1        0.2109
      9 N         138.1144  139.8332  158.3005 N.am    1  UNL1       -0.2808
     10 C         138.2237  140.4136  159.6794 C.2     1  UNL1        0.2502
     11 O         138.2760  141.9011  159.8650 O.2     1  UNL1       -0.2723
     12 H         138.0801  138.8569  158.1786 H       1  UNL1        0.1550
     13 C         134.2341  140.4101  156.0959 C.ar    1  UNL1        0.2251
     14 C         134.1771  141.3173  154.9027 C.ar    1  UNL1        0.0593
     15 C         135.4136  142.0322  154.4444 C.ar    1  UNL1        0.0255
     16 C         136.7070  141.8399  155.1792 C.ar    1  UNL1        0.1004
     17 N         137.9435  142.5548  154.7208 N.ar    1  UNL1       -0.2422
     18 C         139.2369  142.3625  155.4556 C.ar    1  UNL1        0.1002
     19 C         139.2940  141.4553  156.6489 C.ar    1  UNL1        0.0369
     20 C         138.0575  140.7404  157.1073 C.ar    1  UNL1        0.0714
     21 C         136.7640  140.9327  156.3724 C.ar    1  UNL1        0.1154
     22 N         135.5275  140.2179  156.8307 N.ar    1  UNL1       -0.2089
     23 C         133.0035  138.9437  157.8524 C.3     1  UNL1        0.2542
     24 O         132.9976  139.6953  156.5543 O.3     1  UNL1       -0.4561
     25 N         141.1904  136.8516  163.0487 N.3     1  UNL1       -0.2948
     26 H         142.0629  136.8764  162.5210 H       1  UNL1        0.1235
     27 C         141.5410  137.1370  164.4789 C.3     1  UNL1        0.0957
     28 C         141.9847  138.5118  164.8825 C.ar    1  UNL1       -0.0032
     29 C         141.2723  139.2358  165.9863 C.ar    1  UNL1        0.0004
     30 C         141.7160  140.6108  166.3900 C.ar    1  UNL1        0.0398
     31 C         142.8719  141.2615  165.6898 C.ar    1  UNL1        0.1724
     32 C         143.5843  140.5375  164.5860 C.ar    1  UNL1        0.1721
     33 C         143.1406  139.1627  164.1824 C.ar    1  UNL1        0.0371
     34 O         144.7402  141.1884  163.8859 O.3     1  UNL1       -0.4684
     35 C         145.1838  142.5632  164.2895 C.3     1  UNL1        0.2526
     36 C         144.4715  143.2873  165.3933 C.3     1  UNL1        0.2526
     37 O         143.3156  142.6365  166.0935 O.3     1  UNL1       -0.4684
@<TRIPOS>BOND
     1    23    24    1
     2    24    13    1
     3    13    14   ar
     4    14    15   ar
     5    15    16   ar
     6    16    17   ar
     7    17    18   ar
     8    18    19   ar
     9    19    20   ar
    10    20     9    1
    11     9    10   am
    12    10    11    2
    13    10     1    1
    14     1     2    1
    15     1     3    1
    16     3     4    1
    17     4     5    1
    18     5    25    1
    19    25    27    1
    20    27    28    1
    21    28    29   ar
    22    29    30   ar
    23    30    31   ar
    24    31    32   ar
    25    32    33   ar
    26    32    34    1
    27    34    35    1
    28    35    36    1
    29    36    37    1
    30     5     6    1
    31     6     7    1
    32    20    21   ar
    33    21    22   ar
    34    22    13   ar
    35    21    16   ar
    36     7     1    1
    37    33    28   ar
    38    37    31    1
    39     9    12    1
    40     2     8    1
    41    25    26    1
@<TRIPOS>MOLECULE
*****
 37 41 0 0 0
SMALL
GASTEIGER

@<TRIPOS>ATOM
      1 C         141.3572  137.8467  162.0118 C.3     1  UNL1        0.1565
      2 O         142.8279  137.8109  161.7187 O.3     1  UNL1       -0.3781
      3 C         139.8790  137.9754  161.7924 C.3     1  UNL1        0.0372
      4 C         138.9335  137.8243  162.9470 C.3     1  UNL1        0.0186
      5 C         139.4662  137.5447  164.3211 C.3     1  UNL1        0.0544
      6 C         140.9444  137.4160  164.5405 C.3     1  UNL1        0.0186
      7 C         141.8900  137.5671  163.3859 C.3     1  UNL1        0.0372
      8 H         142.9732  137.9725  160.7734 H       1  UNL1        0.2109
      9 N         142.6005  138.0130  159.7366 N.am    1  UNL1       -0.2808
     10 C         141.3353  138.1139  160.5360 C.2     1  UNL1        0.2502
     11 O         140.0480  138.4821  159.8596 O.2     1  UNL1       -0.2723
     12 H         143.4453  137.7714  160.1805 H       1  UNL1        0.1550
     13 C         143.2656  134.6429  156.8297 C.ar    1  UNL1        0.2251
     14 C         143.2436  134.9101  155.3539 C.ar    1  UNL1        0.0593
     15 C         142.9999  136.3007  154.8470 C.ar    1  UNL1        0.0255
     16 C         142.7782  137.4241  155.8159 C.ar    1  UNL1        0.1004
     17 N         142.5345  138.8146  155.3091 N.ar    1  UNL1       -0.2422
     18 C         142.3128  139.9380  156.2780 C.ar    1  UNL1        0.1002
     19 C         142.3348  139.6708  157.7539 C.ar    1  UNL1        0.0369
     20 C         142.5785  138.2803  158.2608 C.ar    1  UNL1        0.0714
     21 C         142.8002  137.1569  157.2918 C.ar    1  UNL1        0.1154
     22 N         143.0439  135.7663  157.7986 N.ar    1  UNL1       -0.2089
     23 C         142.8009  132.0897  156.7071 C.3     1  UNL1        0.2542
     24 O         143.5093  133.2524  157.3366 O.3     1  UNL1       -0.4561
     25 N         138.5206  137.3936  165.4756 N.3     1  UNL1       -0.2948
     26 H         138.9628  136.7550  166.1367 H       1  UNL1        0.1235
     27 C         138.0939  138.5999  166.2583 C.3     1  UNL1        0.0957
     28 C         138.5840  139.9617  165.8643 C.ar    1  UNL1       -0.0032
     29 C         139.8092  140.5345  166.5132 C.ar    1  UNL1        0.0004
     30 C         140.2994  141.8964  166.1191 C.ar    1  UNL1        0.0398
     31 C         139.5645  142.6852  165.0763 C.ar    1  UNL1        0.1724
     32 C         138.3394  142.1124  164.4274 C.ar    1  UNL1        0.1721
     33 C         137.8492  140.7507  164.8215 C.ar    1  UNL1        0.0371
     34 O         137.6046  142.9014  163.3846 O.3     1  UNL1       -0.4684
     35 C         138.0947  144.2632  162.9906 C.3     1  UNL1        0.2526
     36 C         139.3199  144.8360  163.6394 C.3     1  UNL1        0.2526
     37 O         140.0547  144.0471  164.6822 O.3     1  UNL1       -0.4684
@<TRIPOS>BOND
     1    23    24    1
     2    24    13    1
     3    13    14   ar
     4    14    15   ar
     5    15    16   ar
     6    16    17   ar
     7    17    18   ar
     8    18    19   ar
     9    19    20   ar
    10    20     9    1
    11     9    10   am
    12    10    11    2
    13    10     1    1
    14     1     2    1
    15     1     3    1
    16     3     4    1
    17     4     5    1
    18     5    25    1
    19    25    27    1
    20    27    28    1
    21    28    29   ar
    22    29    30   ar
    23    30    31   ar
    24    31    32   ar
    25    32    33   ar
    26    32    34    1
    27    34    35    1
    28    35    36    1
    29    36    37    1
    30     5     6    1
    31     6     7    1
    32    20    21   ar
    33    21    22   ar
    34    22    13   ar
    35    21    16   ar
    36     7     1    1
    37    33    28   ar
    38    37    31    1
    39     9    12    1
    40     2     8    1
    41    25    26    1
@<TRIPOS>MOLECULE
*****
 37 41 0 0 0
SMALL
GASTEIGER

@<TRIPOS>ATOM
      1 C         138.4826  139.2135  162.9876 C.3     1  UNL1        0.1565
      2 O         138.5946  138.2549  161.8393 O.3     1  UNL1       -0.3781
      3 C         138.2840  140.4970  163.7380 C.3     1  UNL1        0.0372
      4 C         138.3738  140.5120  165.2352 C.3     1  UNL1        0.0186
      5 C         138.6622  139.2435  165.9820 C.3     1  UNL1        0.0544
      6 C         138.8609  137.9600  165.2316 C.3     1  UNL1        0.0186
      7 C         138.7711  137.9450  163.7344 C.3     1  UNL1        0.0372
      8 H         138.4522  138.7305  161.0060 H       1  UNL1        0.2109
      9 N         139.1434  140.1347  160.6499 N.am    1  UNL1       -0.2808
     10 C         138.2331  140.1491  161.8420 C.2     1  UNL1        0.2502
     11 O         137.0732  141.0991  161.8885 O.2     1  UNL1       -0.2723
     12 H         139.9047  139.5111  160.6193 H       1  UNL1        0.1550
     13 C         141.4944  143.9569  160.3134 C.ar    1  UNL1        0.2251
     14 C         141.2448  144.8925  159.1678 C.ar    1  UNL1        0.0593
     15 C         140.2116  144.5540  158.1344 C.ar    1  UNL1        0.0255
     16 C         139.4280  143.2800  158.2466 C.ar    1  UNL1        0.1004
     17 N         138.3948  142.9415  157.2131 N.ar    1  UNL1       -0.2422
     18 C         137.6112  141.6674  157.3253 C.ar    1  UNL1        0.1002
     19 C         137.8607  140.7318  158.4709 C.ar    1  UNL1        0.0369
     20 C         138.8939  141.0702  159.5043 C.ar    1  UNL1        0.0714
     21 C         139.6775  142.3444  159.3921 C.ar    1  UNL1        0.1154
     22 N         140.7107  142.6829  160.4255 N.ar    1  UNL1       -0.2089
     23 C         142.1093  144.5923  162.7564 C.3     1  UNL1        0.2542
     24 O         142.5275  144.2954  161.3468 O.3     1  UNL1       -0.4561
     25 N         138.7520  139.2585  167.4793 N.3     1  UNL1       -0.2948
     26 H         138.6623  138.2909  167.7893 H       1  UNL1        0.1235
     27 C         139.9706  139.8176  168.1520 C.3     1  UNL1        0.0957
     28 C         141.0840  140.3939  167.3286 C.ar    1  UNL1       -0.0032
     29 C         141.2645  141.8808  167.2472 C.ar    1  UNL1        0.0004
     30 C         142.3781  142.4572  166.4238 C.ar    1  UNL1        0.0398
     31 C         143.3110  141.5467  165.6819 C.ar    1  UNL1        0.1724
     32 C         143.1305  140.0598  165.7632 C.ar    1  UNL1        0.1721
     33 C         142.0170  139.4835  166.5866 C.ar    1  UNL1        0.0371
     34 O         144.0635  139.1494  165.0212 O.3     1  UNL1       -0.4684
     35 C         145.1770  139.7257  164.1978 C.3     1  UNL1        0.2526
     36 C         145.3574  141.2126  164.1165 C.3     1  UNL1        0.2526
     37 O         144.4245  142.1231  164.8584 O.3     1  UNL1       -0.4684
@<TRIPOS>BOND
     1    23    24    1
     2    24    13    1
     3    13    14   ar
     4    14    15   ar
     5    15    16   ar
     6    16    17   ar
     7    17    18   ar
     8    18    19   ar
     9    19    20   ar
    10    20     9    1
    11     9    10   am
    12    10    11    2
    13    10     1    1
    14     1     2    1
    15     1     3    1
    16     3     4    1
    17     4     5    1
    18     5    25    1
    19    25    27    1
    20    27    28    1
    21    28    29   ar
    22    29    30   ar
    23    30    31   ar
    24    31    32   ar
    25    32    33   ar
    26    32    34    1
    27    34    35    1
    28    35    36    1
    29    36    37    1
    30     5     6    1
    31     6     7    1
    32    20    21   ar
    33    21    22   ar
    34    22    13   ar
    35    21    16   ar
    36     7     1    1
    37    33    28   ar
    38    37    31    1
    39     9    12    1
    40     2     8    1
    41    25    26    1
@<TRIPOS>MOLECULE
*****
 37 41 0 0 0
SMALL
GASTEIGER

@<TRIPOS>ATOM
      1 C         142.9482  138.5702  161.2507 C.3     1  UNL1        0.1565
      2 O         142.3292  137.2313  161.5232 O.3     1  UNL1       -0.3781
      3 C         143.3282  139.8255  160.5230 C.3     1  UNL1        0.0372
      4 C         144.1814  140.8563  161.2008 C.3     1  UNL1        0.0186
      5 C         144.6546  140.6318  162.6065 C.3     1  UNL1        0.0544
      6 C         144.2746  139.3764  163.3342 C.3     1  UNL1        0.0186
      7 C         143.4214  138.3456  162.6563 C.3     1  UNL1        0.0372
      8 H         141.8362  136.9378  160.7410 H       1  UNL1        0.2109
      9 N         143.0688  138.0378  158.7106 N.am    1  UNL1       -0.2808
     10 C         142.2601  138.3298  159.9398 C.2     1  UNL1        0.2502
     11 O         140.7632  138.3814  159.8579 O.2     1  UNL1       -0.2723
     12 H         144.0513  138.0039  158.7644 H       1  UNL1        0.1550
     13 C         143.1446  133.9423  156.8475 C.ar    1  UNL1        0.2251
     14 C         142.4564  133.7019  155.5365 C.ar    1  UNL1        0.0593
     15 C         141.7430  134.8267  154.8466 C.ar    1  UNL1        0.0255
     16 C         141.7178  136.1918  155.4676 C.ar    1  UNL1        0.1004
     17 N         141.0044  137.3166  154.7777 N.ar    1  UNL1       -0.2422
     18 C         140.9791  138.6817  155.3987 C.ar    1  UNL1        0.1002
     19 C         141.6673  138.9222  156.7097 C.ar    1  UNL1        0.0369
     20 C         142.3807  137.7974  157.3997 C.ar    1  UNL1        0.0714
     21 C         142.4059  136.4322  156.7786 C.ar    1  UNL1        0.1154
     22 N         143.1193  135.3074  157.4685 N.ar    1  UNL1       -0.2089
     23 C         144.9123  132.0387  156.8082 C.3     1  UNL1        0.2542
     24 O         143.8580  132.8176  157.5374 O.3     1  UNL1       -0.4561
     25 N         145.5078  141.6626  163.2843 N.3     1  UNL1       -0.2948
     26 H         145.7831  142.3343  162.5678 H       1  UNL1        0.1235
     27 C         144.9566  142.4554  164.4321 C.3     1  UNL1        0.0957
     28 C         143.6200  143.1247  164.3082 C.ar    1  UNL1       -0.0032
     29 C         143.5357  144.5547  163.8631 C.ar    1  UNL1        0.0004
     30 C         142.1990  145.2241  163.7392 C.ar    1  UNL1        0.0398
     31 C         140.9468  144.4635  164.0603 C.ar    1  UNL1        0.1724
     32 C         141.0310  143.0335  164.5053 C.ar    1  UNL1        0.1721
     33 C         142.3676  142.3642  164.6293 C.ar    1  UNL1        0.0371
     34 O         139.7786  142.2730  164.8264 O.3     1  UNL1       -0.4684
     35 C         138.4420  142.9423  164.7025 C.3     1  UNL1        0.2526
     36 C         138.3578  144.3723  164.2574 C.3     1  UNL1        0.2526
     37 O         139.6100  145.1328  163.9363 O.3     1  UNL1       -0.4684
@<TRIPOS>BOND
     1    23    24    1
     2    24    13    1
     3    13    14   ar
     4    14    15   ar
     5    15    16   ar
     6    16    17   ar
     7    17    18   ar
     8    18    19   ar
     9    19    20   ar
    10    20     9    1
    11     9    10   am
    12    10    11    2
    13    10     1    1
    14     1     2    1
    15     1     3    1
    16     3     4    1
    17     4     5    1
    18     5    25    1
    19    25    27    1
    20    27    28    1
    21    28    29   ar
    22    29    30   ar
    23    30    31   ar
    24    31    32   ar
    25    32    33   ar
    26    32    34    1
    27    34    35    1
    28    35    36    1
    29    36    37    1
    30     5     6    1
    31     6     7    1
    32    20    21   ar
    33    21    22   ar
    34    22    13   ar
    35    21    16   ar
    36     7     1    1
    37    33    28   ar
    38    37    31    1
    39     9    12    1
    40     2     8    1
    41    25    26    1
@<TRIPOS>MOLECULE
*****
 37 41 0 0 0
SMALL
GASTEIGER

@<TRIPOS>ATOM
      1 C         138.5642  139.8988  160.3654 C.3     1  UNL1        0.1565
      2 O         139.1527  138.8910  159.4230 O.3     1  UNL1       -0.3781
      3 C         137.9056  141.1544  160.8549 C.3     1  UNL1        0.0372
      4 C         137.6533  141.3465  162.3210 C.3     1  UNL1        0.0186
      5 C         138.0597  140.2829  163.2976 C.3     1  UNL1        0.0544
      6 C         138.7183  139.0273  162.8081 C.3     1  UNL1        0.0186
      7 C         138.9706  138.8352  161.3420 C.3     1  UNL1        0.0372
      8 H         139.0913  139.2238  158.5140 H       1  UNL1        0.2109
      9 N         138.2058  139.8270  157.7931 N.am    1  UNL1       -0.2808
     10 C         138.3623  140.6124  159.0616 C.2     1  UNL1        0.2502
     11 O         138.3168  142.1113  159.0261 O.2     1  UNL1       -0.2723
     12 H         138.2356  138.8433  157.8164 H       1  UNL1        0.1550
     13 C         134.0503  140.4112  156.1681 C.ar    1  UNL1        0.2251
     14 C         133.8484  141.1248  154.8643 C.ar    1  UNL1        0.0593
     15 C         135.0315  141.6436  154.1021 C.ar    1  UNL1        0.0255
     16 C         136.4167  141.4489  154.6438 C.ar    1  UNL1        0.1004
     17 N         137.5998  141.9678  153.8816 N.ar    1  UNL1       -0.2422
     18 C         138.9850  141.7731  154.4233 C.ar    1  UNL1        0.1002
     19 C         139.1870  141.0595  155.7272 C.ar    1  UNL1        0.0369
     20 C         138.0038  140.5406  156.4893 C.ar    1  UNL1        0.0714
     21 C         136.6186  140.7354  155.9476 C.ar    1  UNL1        0.1154
     22 N         135.4354  140.2165  156.7097 N.ar    1  UNL1       -0.2089
     23 C         133.0556  138.8407  157.9830 C.3     1  UNL1        0.2542
     24 O         132.8671  139.8924  156.9302 O.3     1  UNL1       -0.4561
     25 N         137.8074  140.4749  164.7637 N.3     1  UNL1       -0.2948
     26 H         136.8045  140.6261  164.8725 H       1  UNL1        0.1235
     27 C         138.1917  139.4011  165.7378 C.3     1  UNL1        0.0957
     28 C         139.4222  139.5587  166.5810 C.ar    1  UNL1       -0.0032
     29 C         140.7763  139.3094  165.9856 C.ar    1  UNL1        0.0004
     30 C         142.0069  139.4669  166.8289 C.ar    1  UNL1        0.0398
     31 C         141.8834  139.8738  168.2672 C.ar    1  UNL1        0.1724
     32 C         140.5293  140.1231  168.8626 C.ar    1  UNL1        0.1721
     33 C         139.2988  139.9655  168.0195 C.ar    1  UNL1        0.0371
     34 O         140.4059  140.5300  170.3011 O.3     1  UNL1       -0.4684
     35 C         141.6364  140.6876  171.1443 C.3     1  UNL1        0.2526
     36 C         142.9905  140.4382  170.5488 C.3     1  UNL1        0.2526
     37 O         143.1140  140.0314  169.1105 O.3     1  UNL1       -0.4684
@<TRIPOS>BOND
     1    23    24    1
     2    24    13    1
     3    13    14   ar
     4    14    15   ar
     5    15    16   ar
     6    16    17   ar
     7    17    18   ar
     8    18    19   ar
     9    19    20   ar
    10    20     9    1
    11     9    10   am
    12    10    11    2
    13    10     1    1
    14     1     2    1
    15     1     3    1
    16     3     4    1
    17     4     5    1
    18     5    25    1
    19    25    27    1
    20    27    28    1
    21    28    29   ar
    22    29    30   ar
    23    30    31   ar
    24    31    32   ar
    25    32    33   ar
    26    32    34    1
    27    34    35    1
    28    35    36    1
    29    36    37    1
    30     5     6    1
    31     6     7    1
    32    20    21   ar
    33    21    22   ar
    34    22    13   ar
    35    21    16   ar
    36     7     1    1
    37    33    28   ar
    38    37    31    1
    39     9    12    1
    40     2     8    1
    41    25    26    1
@<TRIPOS>MOLECULE
*****
 37 41 0 0 0
SMALL
GASTEIGER

@<TRIPOS>ATOM
      1 C         142.2278  137.8895  162.8327 C.3     1  UNL1        0.1565
      2 O         141.5021  136.8608  162.0172 O.3     1  UNL1       -0.3781
      3 C         143.1806  138.9931  163.1854 C.3     1  UNL1        0.0372
      4 C         143.2277  139.5237  164.5876 C.3     1  UNL1        0.0186
      5 C         142.3220  138.9508  165.6371 C.3     1  UNL1        0.0544
      6 C         141.3693  137.8472  165.2845 C.3     1  UNL1        0.0186
      7 C         141.3222  137.3165  163.8823 C.3     1  UNL1        0.0372
      8 H         141.8283  136.8832  161.1040 H       1  UNL1        0.2109
      9 N         142.0634  138.5624  160.3287 N.am    1  UNL1       -0.2808
     10 C         142.8814  138.1052  161.5000 C.2     1  UNL1        0.2502
     11 O         144.3530  137.8639  161.3385 O.2     1  UNL1       -0.2723
     12 H         141.0975  138.7208  160.4347 H       1  UNL1        0.1550
     13 C         144.3983  142.3298  159.5513 C.ar    1  UNL1        0.2251
     14 C         145.0519  142.5455  158.2185 C.ar    1  UNL1        0.0593
     15 C         144.9272  141.5054  157.1449 C.ar    1  UNL1        0.0255
     16 C         144.1489  140.2497  157.4040 C.ar    1  UNL1        0.1004
     17 N         144.0241  139.2096  156.3304 N.ar    1  UNL1       -0.2422
     18 C         143.2458  137.9538  156.5895 C.ar    1  UNL1        0.1002
     19 C         142.5922  137.7380  157.9223 C.ar    1  UNL1        0.0369
     20 C         142.7169  138.7781  158.9959 C.ar    1  UNL1        0.0714
     21 C         143.4953  140.0339  158.7367 C.ar    1  UNL1        0.1154
     22 N         143.6200  141.0740  159.8104 N.ar    1  UNL1       -0.2089
     23 C         144.5070  142.9632  162.0686 C.3     1  UNL1        0.2542
     24 O         144.5231  143.3699  160.6249 O.3     1  UNL1       -0.4561
     25 N         142.3692  139.4814  167.0394 N.3     1  UNL1       -0.2948
     26 H         143.2691  139.9492  167.1471 H       1  UNL1        0.1235
     27 C         141.3212  140.4447  167.5123 C.3     1  UNL1        0.0957
     28 C         140.3890  141.0830  166.5257 C.ar    1  UNL1       -0.0032
     29 C         139.1298  140.3767  166.1183 C.ar    1  UNL1        0.0004
     30 C         138.1976  141.0151  165.1316 C.ar    1  UNL1        0.0398
     31 C         138.5244  142.3595  164.5524 C.ar    1  UNL1        0.1724
     32 C         139.7835  143.0657  164.9598 C.ar    1  UNL1        0.1721
     33 C         140.7157  142.4274  165.9464 C.ar    1  UNL1        0.0371
     34 O         140.1103  144.4102  164.3805 O.3     1  UNL1       -0.4684
     35 C         139.1781  145.0485  163.3938 C.3     1  UNL1        0.2526
     36 C         137.9190  144.3422  162.9864 C.3     1  UNL1        0.2526
     37 O         137.5921  142.9978  163.5657 O.3     1  UNL1       -0.4684
@<TRIPOS>BOND
     1    23    24    1
     2    24    13    1
     3    13    14   ar
     4    14    15   ar
     5    15    16   ar
     6    16    17   ar
     7    17    18   ar
     8    18    19   ar
     9    19    20   ar
    10    20     9    1
    11     9    10   am
    12    10    11    2
    13    10     1    1
    14     1     2    1
    15     1     3    1
    16     3     4    1
    17     4     5    1
    18     5    25    1
    19    25    27    1
    20    27    28    1
    21    28    29   ar
    22    29    30   ar
    23    30    31   ar
    24    31    32   ar
    25    32    33   ar
    26    32    34    1
    27    34    35    1
    28    35    36    1
    29    36    37    1
    30     5     6    1
    31     6     7    1
    32    20    21   ar
    33    21    22   ar
    34    22    13   ar
    35    21    16   ar
    36     7     1    1
    37    33    28   ar
    38    37    31    1
    39     9    12    1
    40     2     8    1
    41    25    26    1
@<TRIPOS>MOLECULE
*****
 37 41 0 0 0
SMALL
GASTEIGER

@<TRIPOS>ATOM
      1 C         141.9686  144.6414  161.6632 C.3     1  UNL1        0.1565
      2 O         141.1225  145.7617  162.1915 O.3     1  UNL1       -0.3781
      3 C         142.4803  143.5765  160.7391 C.3     1  UNL1        0.0372
      4 C         143.6608  142.7413  161.1379 C.3     1  UNL1        0.0186
      5 C         144.3295  142.9712  162.4608 C.3     1  UNL1        0.0544
      6 C         143.8178  144.0362  163.3848 C.3     1  UNL1        0.0186
      7 C         142.6373  144.8713  162.9861 C.3     1  UNL1        0.0372
      8 H         140.4352  145.9813  161.5433 H       1  UNL1        0.2109
      9 N         141.4084  144.3880  159.1389 N.am    1  UNL1       -0.2808
     10 C         141.0061  144.8006  160.5238 C.2     1  UNL1        0.2502
     11 O         139.6412  145.3723  160.7693 O.2     1  UNL1       -0.2723
     12 H         142.3042  144.0128  158.9777 H       1  UNL1        0.1550
     13 C         138.3710  141.1769  158.2942 C.ar    1  UNL1        0.2251
     14 C         137.4085  141.3361  157.1549 C.ar    1  UNL1        0.0593
     15 C         137.4584  142.5656  156.2970 C.ar    1  UNL1        0.0255
     16 C         138.4708  143.6359  156.5786 C.ar    1  UNL1        0.1004
     17 N         138.5207  144.8654  155.7208 N.ar    1  UNL1       -0.2422
     18 C         139.5332  145.9358  156.0023 C.ar    1  UNL1        0.1002
     19 C         140.4958  145.7767  157.1417 C.ar    1  UNL1        0.0369
     20 C         140.4459  144.5472  157.9995 C.ar    1  UNL1        0.0714
     21 C         139.4333  143.4768  157.7179 C.ar    1  UNL1        0.1154
     22 N         139.3834  142.2473  158.5757 N.ar    1  UNL1       -0.2089
     23 C         137.7231  140.0153  160.5260 C.3     1  UNL1        0.2542
     24 O         138.3211  139.9475  159.1520 O.3     1  UNL1       -0.4561
     25 N         145.5100  142.1361  162.8596 N.3     1  UNL1       -0.2948
     26 H         146.1041  142.7255  163.4428 H       1  UNL1        0.1235
     27 C         145.3025  140.8538  163.6096 C.3     1  UNL1        0.0957
     28 C         144.1152  139.9897  163.3038 C.ar    1  UNL1       -0.0032
     29 C         144.2044  138.9450  162.2310 C.ar    1  UNL1        0.0004
     30 C         143.0170  138.0808  161.9252 C.ar    1  UNL1        0.0398
     31 C         141.7407  138.2613  162.6920 C.ar    1  UNL1        0.1724
     32 C         141.6514  139.3060  163.7647 C.ar    1  UNL1        0.1721
     33 C         142.8387  140.1701  164.0705 C.ar    1  UNL1        0.0371
     34 O         140.3750  139.4864  164.5315 O.3     1  UNL1       -0.4684
     35 C         139.1877  138.6223  164.2257 C.3     1  UNL1        0.2526
     36 C         139.2769  137.5776  163.1529 C.3     1  UNL1        0.2526
     37 O         140.5533  137.3971  162.3861 O.3     1  UNL1       -0.4684
@<TRIPOS>BOND
     1    23    24    1
     2    24    13    1
     3    13    14   ar
     4    14    15   ar
     5    15    16   ar
     6    16    17   ar
     7    17    18   ar
     8    18    19   ar
     9    19    20   ar
    10    20     9    1
    11     9    10   am
    12    10    11    2
    13    10     1    1
    14     1     2    1
    15     1     3    1
    16     3     4    1
    17     4     5    1
    18     5    25    1
    19    25    27    1
    20    27    28    1
    21    28    29   ar
    22    29    30   ar
    23    30    31   ar
    24    31    32   ar
    25    32    33   ar
    26    32    34    1
    27    34    35    1
    28    35    36    1
    29    36    37    1
    30     5     6    1
    31     6     7    1
    32    20    21   ar
    33    21    22   ar
    34    22    13   ar
    35    21    16   ar
    36     7     1    1
    37    33    28   ar
    38    37    31    1
    39     9    12    1
    40     2     8    1
    41    25    26    1
@<TRIPOS>MOLECULE
*****
 37 41 0 0 0
SMALL
GASTEIGER

@<TRIPOS>ATOM
      1 C         141.3537  137.7959  162.2203 C.3     1  UNL1        0.1565
      2 O         142.8293  137.6613  161.9868 O.3     1  UNL1       -0.3781
      3 C         139.8990  138.0350  161.9438 C.3     1  UNL1        0.0372
      4 C         138.8967  137.9264  163.0545 C.3     1  UNL1        0.0186
      5 C         139.3493  137.5786  164.4417 C.3     1  UNL1        0.0544
      6 C         140.8040  137.3395  164.7182 C.3     1  UNL1        0.0186
      7 C         141.8063  137.4481  163.6075 C.3     1  UNL1        0.0372
      8 H         143.0259  137.8331  161.0526 H       1  UNL1        0.2109
      9 N         142.7376  138.1363  160.0479 N.am    1  UNL1       -0.2808
     10 C         141.4136  138.0969  160.7520 C.2     1  UNL1        0.2502
     11 O         140.1497  138.3584  159.9878 O.2     1  UNL1       -0.2723
     12 H         143.5672  137.9647  160.5495 H       1  UNL1        0.1550
     13 C         143.2046  142.3846  158.6393 C.ar    1  UNL1        0.2251
     14 C         143.2646  142.6856  157.1711 C.ar    1  UNL1        0.0593
     15 C         143.1688  141.5705  156.1723 C.ar    1  UNL1        0.0255
     16 C         143.0131  140.1544  156.6419 C.ar    1  UNL1        0.1004
     17 N         142.9173  139.0394  155.6431 N.ar    1  UNL1       -0.2422
     18 C         142.7616  137.6233  156.1126 C.ar    1  UNL1        0.1002
     19 C         142.7017  137.3223  157.5809 C.ar    1  UNL1        0.0369
     20 C         142.7975  138.4373  158.5797 C.ar    1  UNL1        0.0714
     21 C         142.9532  139.8535  158.1101 C.ar    1  UNL1        0.1154
     22 N         143.0490  140.9685  159.1088 N.ar    1  UNL1       -0.2089
     23 C         143.6572  143.2008  161.0640 C.3     1  UNL1        0.2542
     24 O         143.3004  143.4996  159.6380 O.3     1  UNL1       -0.4561
     25 N         138.3470  137.4700  165.5524 N.3     1  UNL1       -0.2948
     26 H         138.6516  136.7014  166.1498 H       1  UNL1        0.1235
     27 C         138.0940  138.6435  166.4518 C.3     1  UNL1        0.0957
     28 C         138.5581  140.0116  166.0482 C.ar    1  UNL1       -0.0032
     29 C         139.7318  140.6396  166.7397 C.ar    1  UNL1        0.0004
     30 C         140.1958  142.0078  166.3361 C.ar    1  UNL1        0.0398
     31 C         139.4863  142.7478  165.2413 C.ar    1  UNL1        0.1724
     32 C         138.3126  142.1198  164.5498 C.ar    1  UNL1        0.1721
     33 C         137.8485  140.7517  164.9534 C.ar    1  UNL1        0.0371
     34 O         137.6031  142.8599  163.4550 O.3     1  UNL1       -0.4684
     35 C         138.0671  144.2280  163.0514 C.3     1  UNL1        0.2526
     36 C         139.2408  144.8560  163.7429 C.3     1  UNL1        0.2526
     37 O         139.9503  144.1160  164.8377 O.3     1  UNL1       -0.4684
@<TRIPOS>BOND
     1    23    24    1
     2    24    13    1
     3    13    14   ar
     4    14    15   ar
     5    15    16   ar
     6    16    17   ar
     7    17    18   ar
     8    18    19   ar
     9    19    20   ar
    10    20     9    1
    11     9    10   am
    12    10    11    2
    13    10     1    1
    14     1     2    1
    15     1     3    1
    16     3     4    1
    17     4     5    1
    18     5    25    1
    19    25    27    1
    20    27    28    1
    21    28    29   ar
    22    29    30   ar
    23    30    31   ar
    24    31    32   ar
    25    32    33   ar
    26    32    34    1
    27    34    35    1
    28    35    36    1
    29    36    37    1
    30     5     6    1
    31     6     7    1
    32    20    21   ar
    33    21    22   ar
    34    22    13   ar
    35    21    16   ar
    36     7     1    1
    37    33    28   ar
    38    37    31    1
    39     9    12    1
    40     2     8    1
    41    25    26    1
