@<TRIPOS>MOLECULE
*****
 43 47 0 0 0
SMALL
GASTEIGER

@<TRIPOS>ATOM
      1 C         140.9662  141.7368  165.7683 C.3     1  UNL1        0.0764
      2 C         140.8506  142.6582  164.5903 C.ar    1  UNL1        0.0181
      3 C         141.5544  142.3276  163.3076 C.ar    1  UNL1       -0.0009
      4 C         141.4387  143.2490  162.1295 C.ar    1  UNL1        0.0004
      5 C         142.1425  142.9183  160.8468 C.ar    1  UNL1        0.0067
      6 C         142.0268  143.8397  159.6689 C.ar    1  UNL1        0.0346
      7 BR        142.7306  143.5091  158.3861 Br      1  UNL1       -0.0490
      8 C         141.2074  145.0918  159.7736 C.ar    1  UNL1        0.0067
      9 C         140.5037  145.4224  161.0563 C.ar    1  UNL1        0.0006
     10 C         140.6193  144.5010  162.2343 C.ar    1  UNL1        0.0030
     11 C         139.9156  144.8317  163.5171 C.ar    1  UNL1        0.0366
     12 C         140.0312  143.9103  164.6950 C.ar    1  UNL1        0.1351
     13 O         139.3274  144.2409  165.9778 O.3     1  UNL1       -0.4717
     14 C         138.1556  145.1773  165.9706 C.3     1  UNL1        0.2525
     15 C         138.3878  139.1699  167.3535 C.ar    1  UNL1        0.2272
     16 C         139.3285  140.3299  167.2134 C.ar    1  UNL1        0.0540
     17 C         140.0256  140.5769  165.9084 C.ar    1  UNL1       -0.0064
     18 C         139.7820  139.6638  164.7434 C.ar    1  UNL1        0.0540
     19 C         138.8414  138.5039  164.8835 C.ar    1  UNL1        0.2270
     20 N         138.1443  138.2569  166.1885 N.ar    1  UNL1       -0.1767
     21 C         138.0648  139.7221  169.8715 C.3     1  UNL1        0.2542
     22 O         137.6908  138.9230  168.6585 O.3     1  UNL1       -0.4561
     23 O         138.5978  137.5909  163.7186 O.3     1  UNL1       -0.4640
     24 C         138.7864  138.0949  162.3184 C.3     1  UNL1        0.1678
     25 C         137.6431  138.7413  161.5937 C.3     1  UNL1        0.0473
     26 C         140.1181  137.9526  161.6430 C.3     1  UNL1        0.0473
     27 C         142.0225  141.9754  166.8062 C.3     1  UNL1        0.1186
     28 O         141.1032  142.9178  167.5252 O.3     1  UNL1       -0.3819
     29 H         141.5589  143.7604  167.6779 H       1  UNL1        0.2107
     30 C         142.9418  141.0331  166.0873 C.ar    1  UNL1        0.0369
     31 C         142.8700  139.5601  166.3613 C.ar    1  UNL1        0.0010
     32 C         143.7893  138.6178  165.6424 C.ar    1  UNL1       -0.0000
     33 C         144.7805  139.1484  164.6494 C.ar    1  UNL1        0.0031
     34 C         144.8523  140.6214  164.3754 C.ar    1  UNL1        0.0375
     35 C         145.7200  141.4304  163.4575 C.ar    1  UNL1        0.0437
     36 C         145.3370  142.8727  163.6091 C.ar    1  UNL1        0.1796
     37 O         144.2325  142.9552  164.6208 O.2     1  UNL1       -0.4507
     38 C         143.9330  141.5637  165.0943 C.ar    1  UNL1        0.1436
     39 C         143.0788  142.2140  167.8442 C.3     1  UNL1        0.0492
     40 C         142.6847  142.5301  169.2566 C.3     1  UNL1        0.0750
     41 N         141.9130  141.5273  170.0621 N.3     1  UNL1       -0.2702
     42 C         140.8025  141.9826  170.9617 C.3     1  UNL1        0.0897
     43 C         142.2519  140.0690  169.9680 C.3     1  UNL1        0.0897
@<TRIPOS>BOND
     1    21    22    1
     2    22    15    1
     3    15    16   ar
     4    16    17   ar
     5     1    17    1
     6     1     2    1
     7     2     3   ar
     8     3     4   ar
     9     4     5   ar
    10     5     6   ar
    11     6     7    1
    12     6     8   ar
    13     8     9   ar
    14     9    10   ar
    15    10    11   ar
    16    11    12   ar
    17    12    13    1
    18    13    14    1
    19     1    27    1
    20    27    28    1
    21    27    39    1
    22    39    40    1
    23    40    41    1
    24    41    42    1
    25    41    43    1
    26    27    30    1
    27    30    31   ar
    28    31    32   ar
    29    32    33   ar
    30    33    34   ar
    31    34    35   ar
    32    35    36   ar
    33    36    37   ar
    34    37    38   ar
    35    17    18   ar
    36    18    19   ar
    37    19    23    1
    38    23    24    1
    39    24    25    1
    40    24    26    1
    41    19    20   ar
    42    20    15   ar
    43    12     2   ar
    44    38    30   ar
    45    10     4   ar
    46    38    34   ar
    47    28    29    1
@<TRIPOS>MOLECULE
*****
 43 47 0 0 0
SMALL
GASTEIGER

@<TRIPOS>ATOM
      1 C         142.0549  142.4091  162.6079 C.3     1  UNL1        0.0764
      2 C         142.3755  142.4307  164.0732 C.ar    1  UNL1        0.0181
      3 C         141.3004  142.1487  165.0804 C.ar    1  UNL1       -0.0009
      4 C         141.6209  142.1703  166.5456 C.ar    1  UNL1        0.0004
      5 C         140.5458  141.8883  167.5528 C.ar    1  UNL1        0.0067
      6 C         140.8664  141.9100  169.0179 C.ar    1  UNL1        0.0346
      7 BR        139.7912  141.6279  170.0252 Br      1  UNL1       -0.0490
      8 C         142.2621  142.2136  169.4759 C.ar    1  UNL1        0.0067
      9 C         143.3372  142.4956  168.4687 C.ar    1  UNL1        0.0006
     10 C         143.0167  142.4740  167.0036 C.ar    1  UNL1        0.0030
     11 C         144.0918  142.7560  165.9963 C.ar    1  UNL1        0.0366
     12 C         143.7712  142.7344  164.5311 C.ar    1  UNL1        0.1351
     13 O         144.8464  143.0164  163.5238 O.3     1  UNL1       -0.4717
     14 C         145.7576  141.9143  163.0710 C.3     1  UNL1        0.2525
     15 C         143.3312  139.9484  159.7679 C.ar    1  UNL1        0.2272
     16 C         143.1109  141.1996  160.5655 C.ar    1  UNL1        0.0540
     17 C         142.2752  141.1580  161.8104 C.ar    1  UNL1       -0.0064
     18 C         141.6597  139.8653  162.2577 C.ar    1  UNL1        0.0540
     19 C         141.8800  138.6142  161.4602 C.ar    1  UNL1        0.2270
     20 N         142.7158  138.6557  160.2152 N.ar    1  UNL1       -0.1767
     21 C         143.5083  139.9519  157.1759 C.3     1  UNL1        0.2542
     22 O         144.1670  139.9900  158.5230 O.3     1  UNL1       -0.4561
     23 O         141.2645  137.3215  161.9075 O.3     1  UNL1       -0.4640
     24 C         140.4308  137.2794  163.1538 C.3     1  UNL1        0.1678
     25 C         141.0651  136.9370  164.4693 C.3     1  UNL1        0.0473
     26 C         138.9629  137.5798  163.0847 C.3     1  UNL1        0.0473
     27 C         141.5141  143.6387  161.9403 C.3     1  UNL1        0.1186
     28 O         142.9113  144.0762  161.6142 O.3     1  UNL1       -0.3819
     29 H         143.0454  144.9862  161.9220 H       1  UNL1        0.2107
     30 C         140.1169  143.2012  162.2665 C.ar    1  UNL1        0.0369
     31 C         139.4356  142.1709  161.4154 C.ar    1  UNL1        0.0010
     32 C         138.0384  141.7334  161.7416 C.ar    1  UNL1       -0.0000
     33 C         137.3224  142.3262  162.9188 C.ar    1  UNL1        0.0031
     34 C         138.0037  143.3565  163.7699 C.ar    1  UNL1        0.0375
     35 C         137.5529  144.1126  164.9844 C.ar    1  UNL1        0.0437
     36 C         138.6714  145.0173  165.4089 C.ar    1  UNL1        0.1796
     37 O         139.8137  144.8205  164.4567 O.2     1  UNL1       -0.4507
     38 C         139.4009  143.7940  163.4437 C.ar    1  UNL1        0.1436
     39 C         140.9733  144.8682  161.2727 C.3     1  UNL1        0.0492
     40 C         141.4564  145.2536  159.9059 C.3     1  UNL1        0.0750
     41 N         141.3583  144.2759  158.7725 N.3     1  UNL1       -0.2702
     42 C         142.6042  143.7737  158.1052 C.3     1  UNL1        0.0897
     43 C         140.0140  143.8005  158.3064 C.3     1  UNL1        0.0897
@<TRIPOS>BOND
     1    21    22    1
     2    22    15    1
     3    15    16   ar
     4    16    17   ar
     5     1    17    1
     6     1     2    1
     7     2     3   ar
     8     3     4   ar
     9     4     5   ar
    10     5     6   ar
    11     6     7    1
    12     6     8   ar
    13     8     9   ar
    14     9    10   ar
    15    10    11   ar
    16    11    12   ar
    17    12    13    1
    18    13    14    1
    19     1    27    1
    20    27    28    1
    21    27    39    1
    22    39    40    1
    23    40    41    1
    24    41    42    1
    25    41    43    1
    26    27    30    1
    27    30    31   ar
    28    31    32   ar
    29    32    33   ar
    30    33    34   ar
    31    34    35   ar
    32    35    36   ar
    33    36    37   ar
    34    37    38   ar
    35    17    18   ar
    36    18    19   ar
    37    19    23    1
    38    23    24    1
    39    24    25    1
    40    24    26    1
    41    19    20   ar
    42    20    15   ar
    43    12     2   ar
    44    38    30   ar
    45    10     4   ar
    46    38    34   ar
    47    28    29    1
@<TRIPOS>MOLECULE
*****
 43 47 0 0 0
SMALL
GASTEIGER

@<TRIPOS>ATOM
      1 C         140.2256  140.5408  163.2536 C.3     1  UNL1        0.0764
      2 C         140.0324  140.4982  164.7405 C.ar    1  UNL1        0.0181
      3 C         140.3241  141.7135  165.5699 C.ar    1  UNL1       -0.0009
      4 C         140.1309  141.6708  167.0569 C.ar    1  UNL1        0.0004
      5 C         140.4225  142.8861  167.8863 C.ar    1  UNL1        0.0067
      6 C         140.2293  142.8434  169.3731 C.ar    1  UNL1        0.0346
      7 BR        140.5210  144.0587  170.2026 Br      1  UNL1       -0.0490
      8 C         139.7444  141.5854  170.0306 C.ar    1  UNL1        0.0067
      9 C         139.4527  140.3701  169.2012 C.ar    1  UNL1        0.0006
     10 C         139.6459  140.4128  167.7143 C.ar    1  UNL1        0.0030
     11 C         139.3543  139.1974  166.8849 C.ar    1  UNL1        0.0366
     12 C         139.5475  139.2402  165.3980 C.ar    1  UNL1        0.1351
     13 O         139.2558  138.0248  164.5685 O.3     1  UNL1       -0.4717
     14 C         140.3188  136.9876  164.3582 C.3     1  UNL1        0.2525
     15 C         143.4199  139.6313  161.0813 C.ar    1  UNL1        0.2272
     16 C         142.0355  139.5799  161.6566 C.ar    1  UNL1        0.0540
     17 C         141.6099  140.5922  162.6784 C.ar    1  UNL1       -0.0064
     18 C         142.5687  141.6559  163.1249 C.ar    1  UNL1        0.0540
     19 C         143.9530  141.7073  162.5496 C.ar    1  UNL1        0.2270
     20 N         144.3787  140.6950  161.5278 N.ar    1  UNL1       -0.1767
     21 C         142.9206  137.5001  159.6819 C.3     1  UNL1        0.2542
     22 O         143.8455  138.6190  160.0595 O.3     1  UNL1       -0.4561
     23 O         144.9117  142.7710  162.9962 O.3     1  UNL1       -0.4640
     24 C         144.4577  143.8387  163.9469 C.3     1  UNL1        0.1678
     25 C         144.6328  143.6509  165.4248 C.3     1  UNL1        0.0473
     26 C         143.8287  145.0943  163.4198 C.3     1  UNL1        0.0473
     27 C         139.0345  140.5321  162.3420 C.3     1  UNL1        0.1186
     28 O         139.2774  139.0834  162.0385 O.3     1  UNL1       -0.3819
     29 H         139.3078  138.9551  161.0775 H       1  UNL1        0.2107
     30 C         138.7916  141.9809  162.6455 C.ar    1  UNL1        0.0369
     31 C         137.8281  142.3692  163.7275 C.ar    1  UNL1        0.0010
     32 C         137.5852  143.8179  164.0311 C.ar    1  UNL1       -0.0000
     33 C         138.3058  144.8784  163.2526 C.ar    1  UNL1        0.0031
     34 C         139.2693  144.4901  162.1705 C.ar    1  UNL1        0.0375
     35 C         140.1190  145.3068  161.2427 C.ar    1  UNL1        0.0437
     36 C         140.8870  144.3629  160.3657 C.ar    1  UNL1        0.1796
     37 O         140.5120  142.9627  160.7516 O.2     1  UNL1       -0.4507
     38 C         139.5122  143.0413  161.8670 C.ar    1  UNL1        0.1436
     39 C         137.8433  140.5234  161.4304 C.3     1  UNL1        0.0492
     40 C         137.8178  139.6131  160.2384 C.3     1  UNL1        0.0750
     41 N         138.6865  139.9072  159.0514 N.3     1  UNL1       -0.2702
     42 C         139.5939  138.8453  158.5046 C.3     1  UNL1        0.0897
     43 C         138.6477  141.2632  158.4112 C.3     1  UNL1        0.0897
@<TRIPOS>BOND
     1    21    22    1
     2    22    15    1
     3    15    16   ar
     4    16    17   ar
     5     1    17    1
     6     1     2    1
     7     2     3   ar
     8     3     4   ar
     9     4     5   ar
    10     5     6   ar
    11     6     7    1
    12     6     8   ar
    13     8     9   ar
    14     9    10   ar
    15    10    11   ar
    16    11    12   ar
    17    12    13    1
    18    13    14    1
    19     1    27    1
    20    27    28    1
    21    27    39    1
    22    39    40    1
    23    40    41    1
    24    41    42    1
    25    41    43    1
    26    27    30    1
    27    30    31   ar
    28    31    32   ar
    29    32    33   ar
    30    33    34   ar
    31    34    35   ar
    32    35    36   ar
    33    36    37   ar
    34    37    38   ar
    35    17    18   ar
    36    18    19   ar
    37    19    23    1
    38    23    24    1
    39    24    25    1
    40    24    26    1
    41    19    20   ar
    42    20    15   ar
    43    12     2   ar
    44    38    30   ar
    45    10     4   ar
    46    38    34   ar
    47    28    29    1
@<TRIPOS>MOLECULE
*****
 43 47 0 0 0
SMALL
GASTEIGER

@<TRIPOS>ATOM
      1 C         140.4795  141.3185  164.9736 C.3     1  UNL1        0.0764
      2 C         141.1458  140.4173  163.9765 C.ar    1  UNL1        0.0181
      3 C         140.6460  140.3631  162.5633 C.ar    1  UNL1       -0.0009
      4 C         141.3123  139.4619  161.5662 C.ar    1  UNL1        0.0004
      5 C         140.8125  139.4078  160.1529 C.ar    1  UNL1        0.0067
      6 C         141.4787  138.5066  159.1559 C.ar    1  UNL1        0.0346
      7 BR        140.9790  138.4524  157.7426 Br      1  UNL1       -0.0490
      8 C         142.6447  137.6597  159.5722 C.ar    1  UNL1        0.0067
      9 C         143.1444  137.7139  160.9854 C.ar    1  UNL1        0.0006
     10 C         142.4782  138.6150  161.9824 C.ar    1  UNL1        0.0030
     11 C         142.9779  138.6692  163.3957 C.ar    1  UNL1        0.0366
     12 C         142.3117  139.5704  164.3927 C.ar    1  UNL1        0.1351
     13 O         142.8114  139.6246  165.8061 O.3     1  UNL1       -0.4717
     14 C         143.4976  138.4328  166.4052 C.3     1  UNL1        0.2525
     15 C         138.3099  139.1262  167.4708 C.ar    1  UNL1        0.2272
     16 C         138.8621  139.6950  166.1974 C.ar    1  UNL1        0.0540
     17 C         139.9274  140.7497  166.2470 C.ar    1  UNL1       -0.0064
     18 C         140.4406  141.2358  167.5700 C.ar    1  UNL1        0.0540
     19 C         139.8885  140.6670  168.8434 C.ar    1  UNL1        0.2270
     20 N         138.8231  139.6122  168.7939 N.ar    1  UNL1       -0.1767
     21 C         137.4460  136.8406  166.5879 C.3     1  UNL1        0.2542
     22 O         137.2446  138.0714  167.4212 O.3     1  UNL1       -0.4561
     23 O         140.4016  141.1531  170.1665 O.3     1  UNL1       -0.4640
     24 C         141.8486  141.5169  170.3219 C.3     1  UNL1        0.1678
     25 C         142.8843  140.4385  170.4423 C.3     1  UNL1        0.0473
     26 C         142.2598  142.9590  170.3569 C.3     1  UNL1        0.0473
     27 C         140.3655  142.7884  164.6972 C.3     1  UNL1        0.1186
     28 O         138.8710  142.6655  164.6605 O.3     1  UNL1       -0.3819
     29 H         138.5345  143.0571  163.8393 H       1  UNL1        0.2107
     30 C         141.8600  142.9112  164.7339 C.ar    1  UNL1        0.0369
     31 C         142.5838  142.8712  166.0471 C.ar    1  UNL1        0.0010
     32 C         144.0783  142.9940  166.0838 C.ar    1  UNL1       -0.0000
     33 C         144.8490  143.1569  164.8073 C.ar    1  UNL1        0.0031
     34 C         144.1253  143.1969  163.4941 C.ar    1  UNL1        0.0375
     35 C         144.6128  143.3463  162.0834 C.ar    1  UNL1        0.0437
     36 C         143.4197  143.3158  161.1749 C.ar    1  UNL1        0.1796
     37 O         142.1946  143.1475  162.0241 O.2     1  UNL1       -0.4507
     38 C         142.6307  143.0741  163.4574 C.ar    1  UNL1        0.1436
     39 C         140.2515  144.2583  164.4208 C.3     1  UNL1        0.0492
     40 C         139.1251  144.7776  163.5772 C.3     1  UNL1        0.0750
     41 N         139.2385  144.7604  162.0816 N.3     1  UNL1       -0.2702
     42 C         138.8400  143.5353  161.3133 C.3     1  UNL1        0.0897
     43 C         139.7504  145.9684  161.3543 C.3     1  UNL1        0.0897
@<TRIPOS>BOND
     1    21    22    1
     2    22    15    1
     3    15    16   ar
     4    16    17   ar
     5     1    17    1
     6     1     2    1
     7     2     3   ar
     8     3     4   ar
     9     4     5   ar
    10     5     6   ar
    11     6     7    1
    12     6     8   ar
    13     8     9   ar
    14     9    10   ar
    15    10    11   ar
    16    11    12   ar
    17    12    13    1
    18    13    14    1
    19     1    27    1
    20    27    28    1
    21    27    39    1
    22    39    40    1
    23    40    41    1
    24    41    42    1
    25    41    43    1
    26    27    30    1
    27    30    31   ar
    28    31    32   ar
    29    32    33   ar
    30    33    34   ar
    31    34    35   ar
    32    35    36   ar
    33    36    37   ar
    34    37    38   ar
    35    17    18   ar
    36    18    19   ar
    37    19    23    1
    38    23    24    1
    39    24    25    1
    40    24    26    1
    41    19    20   ar
    42    20    15   ar
    43    12     2   ar
    44    38    30   ar
    45    10     4   ar
    46    38    34   ar
    47    28    29    1
@<TRIPOS>MOLECULE
*****
 43 47 0 0 0
SMALL
GASTEIGER

@<TRIPOS>ATOM
      1 C         142.0332  142.1100  162.7077 C.3     1  UNL1        0.0764
      2 C         142.3152  142.1830  164.1792 C.ar    1  UNL1        0.0181
      3 C         141.2415  141.8344  165.1669 C.ar    1  UNL1       -0.0009
      4 C         141.5236  141.9074  166.6384 C.ar    1  UNL1        0.0004
      5 C         140.4499  141.5587  167.6260 C.ar    1  UNL1        0.0067
      6 C         140.7320  141.6318  169.0974 C.ar    1  UNL1        0.0346
      7 BR        139.6583  141.2831  170.0852 Br      1  UNL1       -0.0490
      8 C         142.0878  142.0535  169.5811 C.ar    1  UNL1        0.0067
      9 C         143.1615  142.4022  168.5935 C.ar    1  UNL1        0.0006
     10 C         142.8794  142.3291  167.1221 C.ar    1  UNL1        0.0030
     11 C         143.9531  142.6778  166.1343 C.ar    1  UNL1        0.0366
     12 C         143.6710  142.6048  164.6629 C.ar    1  UNL1        0.1351
     13 O         144.7448  142.9534  163.6751 O.3     1  UNL1       -0.4717
     14 C         145.7129  141.9030  163.2178 C.3     1  UNL1        0.2525
     15 C         141.9760  138.2514  161.7816 C.ar    1  UNL1        0.2272
     16 C         141.7496  139.5340  162.5259 C.ar    1  UNL1        0.0540
     17 C         142.2596  140.8276  161.9634 C.ar    1  UNL1       -0.0064
     18 C         142.9960  140.8387  160.6567 C.ar    1  UNL1        0.0540
     19 C         143.2224  139.5563  159.9124 C.ar    1  UNL1        0.2270
     20 N         142.7124  138.2626  160.4748 N.ar    1  UNL1       -0.1767
     21 C         140.8487  136.9258  163.7107 C.3     1  UNL1        0.2542
     22 O         141.4659  136.9578  162.3440 O.3     1  UNL1       -0.4561
     23 O         143.9588  139.5675  158.6056 O.3     1  UNL1       -0.4640
     24 C         143.2373  139.9291  157.3412 C.3     1  UNL1        0.1678
     25 C         141.7423  139.8252  157.2748 C.3     1  UNL1        0.0473
     26 C         144.0107  140.3945  156.1432 C.3     1  UNL1        0.0473
     27 C         141.5247  143.3195  161.9806 C.3     1  UNL1        0.1186
     28 O         142.9331  143.7055  161.6379 O.3     1  UNL1       -0.3819
     29 H         143.0896  144.6256  161.9023 H       1  UNL1        0.2107
     30 C         140.1163  142.9334  162.3234 C.ar    1  UNL1        0.0369
     31 C         139.4184  141.8654  161.5347 C.ar    1  UNL1        0.0010
     32 C         138.0100  141.4793  161.8774 C.ar    1  UNL1       -0.0000
     33 C         137.2996  142.1613  163.0088 C.ar    1  UNL1        0.0031
     34 C         137.9976  143.2294  163.7975 C.ar    1  UNL1        0.0375
     35 C         137.5556  144.0710  164.9578 C.ar    1  UNL1        0.0437
     36 C         138.6907  144.9773  165.3322 C.ar    1  UNL1        0.1796
     37 O         139.8344  144.6957  164.4032 O.2     1  UNL1       -0.4507
     38 C         139.4059  143.6154  163.4548 C.ar    1  UNL1        0.1436
     39 C         141.0162  144.5289  161.2535 C.3     1  UNL1        0.0492
     40 C         141.6041  144.9086  159.9267 C.3     1  UNL1        0.0750
     41 N         141.6833  143.8950  158.8238 N.3     1  UNL1       -0.2702
     42 C         143.0021  143.5928  158.1762 C.3     1  UNL1        0.0897
     43 C         140.4436  143.1836  158.3686 C.3     1  UNL1        0.0897
@<TRIPOS>BOND
     1    21    22    1
     2    22    15    1
     3    15    16   ar
     4    16    17   ar
     5     1    17    1
     6     1     2    1
     7     2     3   ar
     8     3     4   ar
     9     4     5   ar
    10     5     6   ar
    11     6     7    1
    12     6     8   ar
    13     8     9   ar
    14     9    10   ar
    15    10    11   ar
    16    11    12   ar
    17    12    13    1
    18    13    14    1
    19     1    27    1
    20    27    28    1
    21    27    39    1
    22    39    40    1
    23    40    41    1
    24    41    42    1
    25    41    43    1
    26    27    30    1
    27    30    31   ar
    28    31    32   ar
    29    32    33   ar
    30    33    34   ar
    31    34    35   ar
    32    35    36   ar
    33    36    37   ar
    34    37    38   ar
    35    17    18   ar
    36    18    19   ar
    37    19    23    1
    38    23    24    1
    39    24    25    1
    40    24    26    1
    41    19    20   ar
    42    20    15   ar
    43    12     2   ar
    44    38    30   ar
    45    10     4   ar
    46    38    34   ar
    47    28    29    1
@<TRIPOS>MOLECULE
*****
 43 47 0 0 0
SMALL
GASTEIGER

@<TRIPOS>ATOM
      1 C         142.2223  140.5347  162.8038 C.3     1  UNL1        0.0764
      2 C         142.2943  140.3283  164.2878 C.ar    1  UNL1        0.0181
      3 C         141.0478  140.4118  165.1179 C.ar    1  UNL1       -0.0009
      4 C         141.1197  140.2054  166.6020 C.ar    1  UNL1        0.0004
      5 C         139.8732  140.2889  167.4321 C.ar    1  UNL1        0.0067
      6 C         139.9452  140.0825  168.9161 C.ar    1  UNL1        0.0346
      7 BR        138.6986  140.1660  169.7463 Br      1  UNL1       -0.0490
      8 C         141.2637  139.7926  169.5699 C.ar    1  UNL1        0.0067
      9 C         142.5102  139.7091  168.7398 C.ar    1  UNL1        0.0006
     10 C         142.4382  139.9155  167.2558 C.ar    1  UNL1        0.0030
     11 C         143.6848  139.8320  166.4256 C.ar    1  UNL1        0.0366
     12 C         143.6128  140.0384  164.9416 C.ar    1  UNL1        0.1351
     13 O         144.8594  139.9549  164.1114 O.3     1  UNL1       -0.4717
     14 C         145.6825  141.1851  163.8686 C.3     1  UNL1        0.2525
     15 C         142.3114  143.6686  160.3706 C.ar    1  UNL1        0.2272
     16 C         142.5614  142.2978  160.9259 C.ar    1  UNL1        0.0540
     17 C         141.9723  141.9055  162.2484 C.ar    1  UNL1       -0.0064
     18 C         141.1333  142.8840  163.0156 C.ar    1  UNL1        0.0540
     19 C         140.8833  144.2547  162.4603 C.ar    1  UNL1        0.2270
     20 N         141.4723  144.6471  161.1377 N.ar    1  UNL1       -0.1767
     21 C         142.0533  144.7624  158.0282 C.3     1  UNL1        0.2542
     22 O         142.9005  144.0609  159.0481 O.3     1  UNL1       -0.4561
     23 O         140.0442  145.2332  163.2275 O.3     1  UNL1       -0.4640
     24 C         138.8153  144.7639  163.9484 C.3     1  UNL1        0.1678
     25 C         137.6691  144.1813  163.1758 C.3     1  UNL1        0.0473
     26 C         138.7326  144.8772  165.4418 C.3     1  UNL1        0.0473
     27 C         142.4004  139.3703  161.8751 C.3     1  UNL1        0.1186
     28 O         143.7636  139.8744  161.5044 O.3     1  UNL1       -0.3819
     29 H         143.8350  139.9333  160.5388 H       1  UNL1        0.2107
     30 C         141.0372  138.8661  162.2459 C.ar    1  UNL1        0.0369
     31 C         140.8895  137.8096  163.3003 C.ar    1  UNL1        0.0010
     32 C         139.5263  137.3054  163.6711 C.ar    1  UNL1       -0.0000
     33 C         138.3108  137.8578  162.9874 C.ar    1  UNL1        0.0031
     34 C         138.4585  138.9143  161.9329 C.ar    1  UNL1        0.0375
     35 C         137.4510  139.6420  161.0931 C.ar    1  UNL1        0.0437
     36 C         138.1915  140.5959  160.2033 C.ar    1  UNL1        0.1796
     37 O         139.6567  140.4577  160.4932 O.2     1  UNL1       -0.4507
     38 C         139.8217  139.4185  161.5622 C.ar    1  UNL1        0.1436
     39 C         142.5785  138.2058  160.9465 C.3     1  UNL1        0.0492
     40 C         143.3106  138.3859  159.6497 C.3     1  UNL1        0.0750
     41 N         142.6609  139.1257  158.5180 N.3     1  UNL1       -0.2702
     42 C         141.3071  138.7062  158.0270 C.3     1  UNL1        0.0897
     43 C         143.3651  140.2850  157.8774 C.3     1  UNL1        0.0897
@<TRIPOS>BOND
     1    21    22    1
     2    22    15    1
     3    15    16   ar
     4    16    17   ar
     5     1    17    1
     6     1     2    1
     7     2     3   ar
     8     3     4   ar
     9     4     5   ar
    10     5     6   ar
    11     6     7    1
    12     6     8   ar
    13     8     9   ar
    14     9    10   ar
    15    10    11   ar
    16    11    12   ar
    17    12    13    1
    18    13    14    1
    19     1    27    1
    20    27    28    1
    21    27    39    1
    22    39    40    1
    23    40    41    1
    24    41    42    1
    25    41    43    1
    26    27    30    1
    27    30    31   ar
    28    31    32   ar
    29    32    33   ar
    30    33    34   ar
    31    34    35   ar
    32    35    36   ar
    33    36    37   ar
    34    37    38   ar
    35    17    18   ar
    36    18    19   ar
    37    19    23    1
    38    23    24    1
    39    24    25    1
    40    24    26    1
    41    19    20   ar
    42    20    15   ar
    43    12     2   ar
    44    38    30   ar
    45    10     4   ar
    46    38    34   ar
    47    28    29    1
@<TRIPOS>MOLECULE
*****
 43 47 0 0 0
SMALL
GASTEIGER

@<TRIPOS>ATOM
      1 C         140.2167  140.3273  163.8353 C.3     1  UNL1        0.0764
      2 C         140.1571  140.3869  165.3330 C.ar    1  UNL1        0.0181
      3 C         141.0782  141.3017  166.0844 C.ar    1  UNL1       -0.0009
      4 C         141.0186  141.3614  167.5821 C.ar    1  UNL1        0.0004
      5 C         141.9397  142.2762  168.3335 C.ar    1  UNL1        0.0067
      6 C         141.8801  142.3359  169.8311 C.ar    1  UNL1        0.0346
      7 BR        142.8012  143.2507  170.5826 Br      1  UNL1       -0.0490
      8 C         140.8993  141.4807  170.5773 C.ar    1  UNL1        0.0067
      9 C         139.9782  140.5659  169.8259 C.ar    1  UNL1        0.0006
     10 C         140.0378  140.5063  168.3283 C.ar    1  UNL1        0.0030
     11 C         139.1167  139.5914  167.5768 C.ar    1  UNL1        0.0366
     12 C         139.1763  139.5318  166.0792 C.ar    1  UNL1        0.1351
     13 O         138.2552  138.6170  165.3277 O.3     1  UNL1       -0.4717
     14 C         138.4448  137.1311  165.4071 C.3     1  UNL1        0.2525
     15 C         144.0751  140.2569  162.9090 C.ar    1  UNL1        0.2272
     16 C         142.7882  140.6086  163.5949 C.ar    1  UNL1        0.0540
     17 C         141.5035  139.9755  163.1494 C.ar    1  UNL1       -0.0064
     18 C         141.5054  138.9908  162.0179 C.ar    1  UNL1        0.0540
     19 C         142.7922  138.6390  161.3320 C.ar    1  UNL1        0.2270
     20 N         144.0770  139.2721  161.7775 N.ar    1  UNL1       -0.1767
     21 C         145.3323  142.1450  164.1754 C.3     1  UNL1        0.2542
     22 O         145.3598  140.8899  163.3545 O.3     1  UNL1       -0.4561
     23 O         142.7941  137.6543  160.2005 O.3     1  UNL1       -0.4640
     24 C         142.7639  138.1415  158.7821 C.3     1  UNL1        0.1678
     25 C         142.8797  139.6083  158.4904 C.3     1  UNL1        0.0473
     26 C         142.6179  137.1620  157.6556 C.3     1  UNL1        0.0473
     27 C         138.9896  140.6193  163.0237 C.3     1  UNL1        0.1186
     28 O         138.9005  139.1725  162.6377 O.3     1  UNL1       -0.3819
     29 H         138.8360  139.0987  161.6727 H       1  UNL1        0.2107
     30 C         139.0786  142.0661  163.4097 C.ar    1  UNL1        0.0369
     31 C         138.2287  142.5984  164.5251 C.ar    1  UNL1        0.0010
     32 C         138.3177  144.0451  164.9110 C.ar    1  UNL1       -0.0000
     33 C         139.2566  144.9596  164.1816 C.ar    1  UNL1        0.0031
     34 C         140.1066  144.4272  163.0662 C.ar    1  UNL1        0.0375
     35 C         141.1164  145.0841  162.1724 C.ar    1  UNL1        0.0437
     36 C         141.6515  144.0433  161.2341 C.ar    1  UNL1        0.1796
     37 O         140.9723  142.7432  161.5479 O.2     1  UNL1       -0.4507
     38 C         140.0176  142.9805  162.6802 C.ar    1  UNL1        0.1436
     39 C         137.7624  140.9113  162.2120 C.3     1  UNL1        0.0492
     40 C         137.5274  140.1859  160.9203 C.3     1  UNL1        0.0750
     41 N         138.4126  140.4520  159.7389 N.3     1  UNL1       -0.2702
     42 C         138.5383  141.8440  159.1944 C.3     1  UNL1        0.0897
     43 C         139.1720  139.3260  159.1020 C.3     1  UNL1        0.0897
@<TRIPOS>BOND
     1    21    22    1
     2    22    15    1
     3    15    16   ar
     4    16    17   ar
     5     1    17    1
     6     1     2    1
     7     2     3   ar
     8     3     4   ar
     9     4     5   ar
    10     5     6   ar
    11     6     7    1
    12     6     8   ar
    13     8     9   ar
    14     9    10   ar
    15    10    11   ar
    16    11    12   ar
    17    12    13    1
    18    13    14    1
    19     1    27    1
    20    27    28    1
    21    27    39    1
    22    39    40    1
    23    40    41    1
    24    41    42    1
    25    41    43    1
    26    27    30    1
    27    30    31   ar
    28    31    32   ar
    29    32    33   ar
    30    33    34   ar
    31    34    35   ar
    32    35    36   ar
    33    36    37   ar
    34    37    38   ar
    35    17    18   ar
    36    18    19   ar
    37    19    23    1
    38    23    24    1
    39    24    25    1
    40    24    26    1
    41    19    20   ar
    42    20    15   ar
    43    12     2   ar
    44    38    30   ar
    45    10     4   ar
    46    38    34   ar
    47    28    29    1
@<TRIPOS>MOLECULE
*****
 43 47 0 0 0
SMALL
GASTEIGER

@<TRIPOS>ATOM
      1 C         141.9678  141.1349  162.8500 C.3     1  UNL1        0.0764
      2 C         142.1193  141.4462  164.3095 C.ar    1  UNL1        0.0181
      3 C         141.0593  141.0199  165.2814 C.ar    1  UNL1       -0.0009
      4 C         141.2108  141.3312  166.7409 C.ar    1  UNL1        0.0004
      5 C         140.1508  140.9049  167.7127 C.ar    1  UNL1        0.0067
      6 C         140.3023  141.2162  169.1722 C.ar    1  UNL1        0.0346
      7 BR        139.2423  140.7898  170.1441 Br      1  UNL1       -0.0490
      8 C         141.5139  141.9540  169.6598 C.ar    1  UNL1        0.0067
      9 C         142.5739  142.3804  168.6880 C.ar    1  UNL1        0.0006
     10 C         142.4224  142.0690  167.2285 C.ar    1  UNL1        0.0030
     11 C         143.4824  142.4954  166.2566 C.ar    1  UNL1        0.0366
     12 C         143.3309  142.1840  164.7972 C.ar    1  UNL1        0.1351
     13 O         144.3910  142.6104  163.8253 O.3     1  UNL1       -0.4717
     14 C         144.2719  143.9264  163.1153 C.3     1  UNL1        0.2525
     15 C         139.1804  143.6780  161.6200 C.ar    1  UNL1        0.2272
     16 C         139.9700  142.7593  162.5049 C.ar    1  UNL1        0.0540
     17 C         141.1784  142.0534  161.9652 C.ar    1  UNL1       -0.0064
     18 C         141.5973  142.2660  160.5406 C.ar    1  UNL1        0.0540
     19 C         140.8079  143.1845  159.6558 C.ar    1  UNL1        0.2270
     20 N         139.5994  143.8906  160.1955 N.ar    1  UNL1       -0.1767
     21 C         137.6067  144.2449  163.6078 C.3     1  UNL1        0.2542
     22 O         137.9720  144.3839  162.1597 O.3     1  UNL1       -0.4561
     23 O         141.2269  143.3971  158.2313 O.3     1  UNL1       -0.4640
     24 C         140.9584  144.7108  157.5586 C.3     1  UNL1        0.1678
     25 C         141.9158  145.8523  157.7333 C.3     1  UNL1        0.0473
     26 C         139.7326  144.8829  156.7114 C.3     1  UNL1        0.0473
     27 C         142.6058  139.9049  162.2754 C.3     1  UNL1        0.1186
     28 O         143.7115  140.7441  161.7068 O.3     1  UNL1       -0.3819
     29 H         143.8088  140.5528  160.7608 H       1  UNL1        0.2107
     30 C         141.5001  139.0657  162.8440 C.ar    1  UNL1        0.0369
     31 C         141.7164  138.3029  164.1173 C.ar    1  UNL1        0.0010
     32 C         140.6107  137.4638  164.6859 C.ar    1  UNL1       -0.0000
     33 C         139.2888  137.3874  163.9812 C.ar    1  UNL1        0.0031
     34 C         139.0725  138.1502  162.7079 C.ar    1  UNL1        0.0375
     35 C         137.8863  138.2679  161.7974 C.ar    1  UNL1        0.0437
     36 C         138.2587  139.1797  160.6662 C.ar    1  UNL1        0.1796
     37 O         139.6753  139.6257  160.8774 O.2     1  UNL1       -0.4507
     38 C         140.1782  138.9894  162.1393 C.ar    1  UNL1        0.1436
     39 C         143.2438  138.6749  161.7008 C.3     1  UNL1        0.0492
     40 C         144.1119  138.7800  160.4820 C.3     1  UNL1        0.0750
     41 N         143.4871  138.9414  159.1279 N.3     1  UNL1       -0.2702
     42 C         142.5838  137.8732  158.5865 C.3     1  UNL1        0.0897
     43 C         143.7656  140.1710  158.3151 C.3     1  UNL1        0.0897
@<TRIPOS>BOND
     1    21    22    1
     2    22    15    1
     3    15    16   ar
     4    16    17   ar
     5     1    17    1
     6     1     2    1
     7     2     3   ar
     8     3     4   ar
     9     4     5   ar
    10     5     6   ar
    11     6     7    1
    12     6     8   ar
    13     8     9   ar
    14     9    10   ar
    15    10    11   ar
    16    11    12   ar
    17    12    13    1
    18    13    14    1
    19     1    27    1
    20    27    28    1
    21    27    39    1
    22    39    40    1
    23    40    41    1
    24    41    42    1
    25    41    43    1
    26    27    30    1
    27    30    31   ar
    28    31    32   ar
    29    32    33   ar
    30    33    34   ar
    31    34    35   ar
    32    35    36   ar
    33    36    37   ar
    34    37    38   ar
    35    17    18   ar
    36    18    19   ar
    37    19    23    1
    38    23    24    1
    39    24    25    1
    40    24    26    1
    41    19    20   ar
    42    20    15   ar
    43    12     2   ar
    44    38    30   ar
    45    10     4   ar
    46    38    34   ar
    47    28    29    1
@<TRIPOS>MOLECULE
*****
 43 47 0 0 0
SMALL
GASTEIGER

@<TRIPOS>ATOM
      1 C         140.9498  139.9041  162.4521 C.3     1  UNL1        0.0764
      2 C         140.5417  139.8602  163.8949 C.ar    1  UNL1        0.0181
      3 C         140.9138  140.9855  164.8142 C.ar    1  UNL1       -0.0009
      4 C         140.5057  140.9415  166.2570 C.ar    1  UNL1        0.0004
      5 C         140.8778  142.0668  167.1762 C.ar    1  UNL1        0.0067
      6 C         140.4696  142.0228  168.6190 C.ar    1  UNL1        0.0346
      7 BR        140.8417  143.1482  169.5383 Br      1  UNL1       -0.0490
      8 C         139.6894  140.8535  169.1424 C.ar    1  UNL1        0.0067
      9 C         139.3173  139.7282  168.2231 C.ar    1  UNL1        0.0006
     10 C         139.7255  139.7722  166.7804 C.ar    1  UNL1        0.0030
     11 C         139.3534  138.6468  165.8610 C.ar    1  UNL1        0.0366
     12 C         139.7615  138.6908  164.4183 C.ar    1  UNL1        0.1351
     13 O         139.3894  137.5655  163.4989 O.3     1  UNL1       -0.4717
     14 C         138.2180  137.7095  162.5730 C.3     1  UNL1        0.2525
     15 C         139.3931  141.3463  159.0985 C.ar    1  UNL1        0.2272
     16 C         140.1073  140.4354  160.0526 C.ar    1  UNL1        0.0540
     17 C         140.2356  140.8150  161.4980 C.ar    1  UNL1       -0.0064
     18 C         139.6498  142.1054  161.9895 C.ar    1  UNL1        0.0540
     19 C         138.9356  143.0163  161.0355 C.ar    1  UNL1        0.2270
     20 N         138.8073  142.6368  159.5899 N.ar    1  UNL1       -0.1767
     21 C         140.4141  140.3134  156.9443 C.3     1  UNL1        0.2542
     22 O         139.2648  140.9668  157.6530 O.3     1  UNL1       -0.4561
     23 O         138.3497  144.3067  161.5269 O.3     1  UNL1       -0.4640
     24 C         139.1048  145.1448  162.5157 C.3     1  UNL1        0.1678
     25 C         138.9750  144.8708  163.9848 C.3     1  UNL1        0.0473
     26 C         139.9895  146.2567  162.0354 C.3     1  UNL1        0.0473
     27 C         142.0721  139.0372  161.9634 C.3     1  UNL1        0.1186
     28 O         141.0892  138.1870  161.2143 O.3     1  UNL1       -0.3819
     29 H         141.2216  137.2555  161.4502 H       1  UNL1        0.2107
     30 C         143.0550  139.8873  162.7125 C.ar    1  UNL1        0.0369
     31 C         143.6748  139.3774  163.9797 C.ar    1  UNL1        0.0010
     32 C         144.6577  140.2275  164.7288 C.ar    1  UNL1       -0.0000
     33 C         145.0208  141.5876  164.2107 C.ar    1  UNL1        0.0031
     34 C         144.4010  142.0975  162.9436 C.ar    1  UNL1        0.0375
     35 C         144.5637  143.3869  162.1948 C.ar    1  UNL1        0.0437
     36 C         143.6815  143.3338  160.9828 C.ar    1  UNL1        0.1796
     37 O         142.9734  142.0114  160.9826 O.2     1  UNL1       -0.4507
     38 C         143.4181  141.2473  162.1944 C.ar    1  UNL1        0.1436
     39 C         143.1944  138.1702  161.4747 C.3     1  UNL1        0.0492
     40 C         143.0350  137.3788  160.2104 C.3     1  UNL1        0.0750
     41 N         143.0660  138.0739  158.8816 N.3     1  UNL1       -0.2702
     42 C         142.6297  137.3466  157.6444 C.3     1  UNL1        0.0897
     43 C         143.5333  139.4963  158.7899 C.3     1  UNL1        0.0897
@<TRIPOS>BOND
     1    21    22    1
     2    22    15    1
     3    15    16   ar
     4    16    17   ar
     5     1    17    1
     6     1     2    1
     7     2     3   ar
     8     3     4   ar
     9     4     5   ar
    10     5     6   ar
    11     6     7    1
    12     6     8   ar
    13     8     9   ar
    14     9    10   ar
    15    10    11   ar
    16    11    12   ar
    17    12    13    1
    18    13    14    1
    19     1    27    1
    20    27    28    1
    21    27    39    1
    22    39    40    1
    23    40    41    1
    24    41    42    1
    25    41    43    1
    26    27    30    1
    27    30    31   ar
    28    31    32   ar
    29    32    33   ar
    30    33    34   ar
    31    34    35   ar
    32    35    36   ar
    33    36    37   ar
    34    37    38   ar
    35    17    18   ar
    36    18    19   ar
    37    19    23    1
    38    23    24    1
    39    24    25    1
    40    24    26    1
    41    19    20   ar
    42    20    15   ar
    43    12     2   ar
    44    38    30   ar
    45    10     4   ar
    46    38    34   ar
    47    28    29    1
