@<TRIPOS>MOLECULE
*****
 41 46 0 0 0
SMALL
GASTEIGER

@<TRIPOS>ATOM
      1 C         144.6047  142.0037  162.2938 C.2     1  UNL1        0.2301
      2 O         144.6311  143.4779  162.0178 O.2     1  UNL1       -0.2745
      3 N         144.0709  141.0567  161.2602 N.am    1  UNL1       -0.2793
      4 C         143.5637  141.5838  159.9507 C.3     1  UNL1        0.0935
      5 C         143.0300  140.6367  158.9172 C.3     1  UNL1        0.0242
      6 C         143.0035  139.1626  159.1931 C.3     1  UNL1        0.0328
      7 C         143.5108  138.6355  160.5026 C.3     1  UNL1        0.0242
      8 C         144.0445  139.5825  161.5361 C.3     1  UNL1        0.0935
      9 C         142.4298  139.3099  157.8150 C.3     1  UNL1        0.0737
     10 N         142.2487  137.8232  157.7314 N.3     1  UNL1       -0.2702
     11 C         142.8224  137.6759  159.1095 C.3     1  UNL1        0.0737
     12 C         141.7150  136.8762  156.6979 C.3     1  UNL1        0.0801
     13 C         140.4434  137.0448  155.9204 C.3     1  UNL1        0.0251
     14 C         140.3016  135.8671  155.0024 C.3     1  UNL1        0.0278
     15 C         141.4857  134.9705  155.2125 C.ar    1  UNL1       -0.0248
     16 C         141.8814  133.6668  154.5850 C.ar    1  UNL1       -0.0030
     17 C         143.1505  132.9867  155.0054 C.ar    1  UNL1        0.0174
     18 C         144.0240  133.6104  156.0532 C.ar    1  UNL1        0.0012
     19 C         143.6284  134.9141  156.6807 C.ar    1  UNL1       -0.0032
     20 C         142.3592  135.5942  156.2603 C.ar    1  UNL1       -0.0117
     21 C         143.5461  131.6830  154.3778 C.ar    1  UNL1        0.0842
     22 C         144.2443  130.6378  155.1964 C.ar    1  UNL1        0.0339
     23 C         144.6399  129.3342  154.5688 C.ar    1  UNL1        0.0626
     24 C         145.3381  128.2890  155.3874 C.3     1  UNL1        0.0522
     25 N         144.3373  129.0756  153.1225 N.ar    1  UNL1       -0.2283
     26 C         143.6391  130.1208  152.3040 C.ar    1  UNL1        0.1985
     27 N         143.2435  131.4245  152.9316 N.ar    1  UNL1       -0.2240
     28 C         145.1120  141.4766  163.6032 C.3     1  UNL1        0.1117
     29 C         142.2411  140.7015  166.9807 C.ar    1  UNL1        0.1389
     30 C         142.6644  139.5767  166.0832 C.ar    1  UNL1        0.0366
     31 C         143.6213  139.8351  164.9574 C.ar    1  UNL1       -0.0005
     32 C         144.1550  141.2183  164.7291 C.ar    1  UNL1       -0.0085
     33 C         143.7316  142.3431  165.6266 C.ar    1  UNL1        0.0527
     34 C         142.7747  142.0847  166.7524 C.ar    1  UNL1        0.0411
     35 C         144.2653  143.7262  165.3984 C.2     1  UNL1        0.2426
     36 N         143.6217  144.6198  164.3799 N.am    1  UNL1       -0.3253
     37 O         145.4424  144.2159  166.1886 O.2     1  UNL1       -0.2704
     38 H         142.8491  144.2984  163.8612 H       1  UNL1        0.1453
     39 H         143.9720  145.5276  164.2301 H       1  UNL1        0.1453
     40 C         140.7791  141.5847  168.9385 C.3     1  UNL1        0.2525
     41 O         141.2841  140.4432  168.1066 O.3     1  UNL1       -0.4714
@<TRIPOS>BOND
     1    40    41    1
     2    41    29    1
     3    29    30   ar
     4    30    31   ar
     5    31    32   ar
     6    32    28    1
     7    28     1    1
     8     1     2    2
     9     1     3   am
    10     3     4    1
    11     4     5    1
    12     5     6    1
    13     6     7    1
    14     7     8    1
    15     6     9    1
    16     9    10    1
    17    12    10    1
    18    12    13    1
    19    13    14    1
    20    14    15    1
    21    15    16   ar
    22    16    17   ar
    23    17    21    1
    24    21    22   ar
    25    22    23   ar
    26    23    24    1
    27    23    25   ar
    28    25    26   ar
    29    26    27   ar
    30    17    18   ar
    31    18    19   ar
    32    19    20   ar
    33    10    11    1
    34    32    33   ar
    35    33    35    1
    36    35    36   am
    37    35    37    2
    38    33    34   ar
    39    34    29   ar
    40     8     3    1
    41    20    12    1
    42    11     6    1
    43    20    15   ar
    44    27    21   ar
    45    36    38    1
    46    36    39    1
@<TRIPOS>MOLECULE
*****
 41 46 0 0 0
SMALL
GASTEIGER

@<TRIPOS>ATOM
      1 C         142.7735  139.3367  166.0287 C.2     1  UNL1        0.2301
      2 O         143.4257  137.9918  166.1543 O.2     1  UNL1       -0.2745
      3 N         142.2039  139.7740  164.7117 N.am    1  UNL1       -0.2793
      4 C         142.2863  138.8663  163.5204 C.3     1  UNL1        0.0935
      5 C         141.7167  139.3036  162.2036 C.3     1  UNL1        0.0242
      6 C         141.0645  140.6485  162.0780 C.3     1  UNL1        0.0328
      7 C         140.9820  141.5562  163.2693 C.3     1  UNL1        0.0242
      8 C         141.5517  141.1190  164.5862 C.3     1  UNL1        0.0935
      9 C         140.9616  140.0381  160.7117 C.3     1  UNL1        0.0737
     10 N         140.2588  141.2670  160.2155 N.3     1  UNL1       -0.2702
     11 C         140.3617  141.8774  161.5818 C.3     1  UNL1        0.0737
     12 C         139.6891  141.7042  158.8986 C.3     1  UNL1        0.0801
     13 C         138.8841  140.8546  157.9606 C.3     1  UNL1        0.0251
     14 C         138.5219  141.6932  156.7708 C.3     1  UNL1        0.0278
     15 C         139.1031  143.0610  156.9735 C.ar    1  UNL1       -0.0248
     16 C         139.0686  144.3013  156.1306 C.ar    1  UNL1       -0.0030
     17 C         139.7556  145.5483  156.6027 C.ar    1  UNL1        0.0174
     18 C         140.4770  145.5551  157.9178 C.ar    1  UNL1        0.0012
     19 C         140.5115  144.3149  158.7607 C.ar    1  UNL1       -0.0032
     20 C         139.8245  143.0678  158.2886 C.ar    1  UNL1       -0.0117
     21 C         139.7211  146.7885  155.7596 C.ar    1  UNL1        0.0842
     22 C         139.0059  148.0113  156.2530 C.ar    1  UNL1        0.0339
     23 C         138.9715  149.2514  155.4100 C.ar    1  UNL1        0.0626
     24 C         138.2563  150.4741  155.9034 C.3     1  UNL1        0.0522
     25 N         139.6523  149.2689  154.0734 N.ar    1  UNL1       -0.2283
     26 C         140.3674  148.0462  153.5800 C.ar    1  UNL1        0.1985
     27 N         140.4019  146.8060  154.4231 N.ar    1  UNL1       -0.2240
     28 C         142.6911  140.2444  167.2200 C.3     1  UNL1        0.1117
     29 C         139.0167  140.2190  169.8179 C.ar    1  UNL1        0.1389
     30 C         138.8936  139.9799  168.3422 C.ar    1  UNL1        0.0366
     31 C         140.1183  139.9884  167.4763 C.ar    1  UNL1       -0.0005
     32 C         141.4663  140.2360  168.0860 C.ar    1  UNL1       -0.0085
     33 C         141.5894  140.4750  169.5617 C.ar    1  UNL1        0.0527
     34 C         140.3647  140.4666  170.4276 C.ar    1  UNL1        0.0411
     35 C         142.9374  140.7226  170.1714 C.2     1  UNL1        0.2426
     36 N         143.5477  139.6993  171.0827 N.am    1  UNL1       -0.3253
     37 O         143.6750  141.9934  169.8699 O.2     1  UNL1       -0.2704
     38 H         143.0636  138.8652  171.2806 H       1  UNL1        0.1453
     39 H         144.4324  139.8618  171.4829 H       1  UNL1        0.1453
     40 C         136.9316  138.9838  170.7542 C.3     1  UNL1        0.2525
     41 O         137.7920  140.2105  170.6839 O.3     1  UNL1       -0.4714
@<TRIPOS>BOND
     1    40    41    1
     2    41    29    1
     3    29    30   ar
     4    30    31   ar
     5    31    32   ar
     6    32    28    1
     7    28     1    1
     8     1     2    2
     9     1     3   am
    10     3     4    1
    11     4     5    1
    12     5     6    1
    13     6     7    1
    14     7     8    1
    15     6     9    1
    16     9    10    1
    17    12    10    1
    18    12    13    1
    19    13    14    1
    20    14    15    1
    21    15    16   ar
    22    16    17   ar
    23    17    21    1
    24    21    22   ar
    25    22    23   ar
    26    23    24    1
    27    23    25   ar
    28    25    26   ar
    29    26    27   ar
    30    17    18   ar
    31    18    19   ar
    32    19    20   ar
    33    10    11    1
    34    32    33   ar
    35    33    35    1
    36    35    36   am
    37    35    37    2
    38    33    34   ar
    39    34    29   ar
    40     8     3    1
    41    20    12    1
    42    11     6    1
    43    20    15   ar
    44    27    21   ar
    45    36    38    1
    46    36    39    1
@<TRIPOS>MOLECULE
*****
 41 46 0 0 0
SMALL
GASTEIGER

@<TRIPOS>ATOM
      1 C         142.7595  143.6691  162.1810 C.2     1  UNL1        0.2301
      2 O         144.0678  144.3968  162.0872 O.2     1  UNL1       -0.2745
      3 N         142.4229  142.5998  161.1842 N.am    1  UNL1       -0.2793
      4 C         143.3946  142.2583  160.0938 C.3     1  UNL1        0.0935
      5 C         143.0580  141.1891  159.0971 C.3     1  UNL1        0.0242
      6 C         141.7497  140.4614  159.1909 C.3     1  UNL1        0.0328
      7 C         140.7780  140.8029  160.2813 C.3     1  UNL1        0.0242
      8 C         141.1146  141.8721  161.2780 C.3     1  UNL1        0.0935
      9 C         142.4425  139.8629  158.0026 C.3     1  UNL1        0.0737
     10 N         141.2737  138.9492  157.7812 N.3     1  UNL1       -0.2702
     11 C         140.5809  139.5476  158.9695 C.3     1  UNL1        0.0737
     12 C         140.9371  137.8800  156.7845 C.3     1  UNL1        0.0801
     13 C         139.7629  137.8828  155.8512 C.3     1  UNL1        0.0251
     14 C         139.8156  136.6248  155.0360 C.3     1  UNL1        0.0278
     15 C         141.0225  135.8445  155.4655 C.ar    1  UNL1       -0.0248
     16 C         141.5799  134.5277  155.0123 C.ar    1  UNL1       -0.0030
     17 C         142.8304  133.9867  155.6397 C.ar    1  UNL1        0.0174
     18 C         143.5234  134.7625  156.7203 C.ar    1  UNL1        0.0012
     19 C         142.9661  136.0792  157.1736 C.ar    1  UNL1       -0.0032
     20 C         141.7156  136.6202  156.5462 C.ar    1  UNL1       -0.0117
     21 C         143.3877  132.6699  155.1863 C.ar    1  UNL1        0.0842
     22 C         142.9849  132.1024  153.8576 C.ar    1  UNL1        0.0339
     23 C         143.5422  130.7857  153.4043 C.ar    1  UNL1        0.0626
     24 C         143.1394  130.2182  152.0756 C.3     1  UNL1        0.0522
     25 N         144.5025  130.0364  154.2798 N.ar    1  UNL1       -0.2283
     26 C         144.9054  130.6039  155.6086 C.ar    1  UNL1        0.1985
     27 N         144.3480  131.9207  156.0618 N.ar    1  UNL1       -0.2240
     28 C         141.7878  144.0106  163.2714 C.3     1  UNL1        0.1117
     29 C         142.2269  142.1440  167.3424 C.ar    1  UNL1        0.1389
     30 C         143.4331  142.3372  166.4719 C.ar    1  UNL1        0.0366
     31 C         143.2867  142.9594  165.1149 C.ar    1  UNL1       -0.0005
     32 C         141.9341  143.3884  164.6284 C.ar    1  UNL1       -0.0085
     33 C         140.7280  143.1951  165.4989 C.ar    1  UNL1        0.0527
     34 C         140.8744  142.5729  166.8559 C.ar    1  UNL1        0.0411
     35 C         139.3754  143.6240  165.0125 C.2     1  UNL1        0.2426
     36 N         138.4563  142.6250  164.3745 N.am    1  UNL1       -0.3253
     37 O         138.9420  145.0520  165.1640 O.2     1  UNL1       -0.2704
     38 H         138.7407  141.6877  164.2750 H       1  UNL1        0.1453
     39 H         137.5686  142.9065  164.0552 H       1  UNL1        0.1453
     40 C         143.2269  142.1839  169.7400 C.3     1  UNL1        0.2525
     41 O         142.3733  141.5217  168.6994 O.3     1  UNL1       -0.4714
@<TRIPOS>BOND
     1    40    41    1
     2    41    29    1
     3    29    30   ar
     4    30    31   ar
     5    31    32   ar
     6    32    28    1
     7    28     1    1
     8     1     2    2
     9     1     3   am
    10     3     4    1
    11     4     5    1
    12     5     6    1
    13     6     7    1
    14     7     8    1
    15     6     9    1
    16     9    10    1
    17    12    10    1
    18    12    13    1
    19    13    14    1
    20    14    15    1
    21    15    16   ar
    22    16    17   ar
    23    17    21    1
    24    21    22   ar
    25    22    23   ar
    26    23    24    1
    27    23    25   ar
    28    25    26   ar
    29    26    27   ar
    30    17    18   ar
    31    18    19   ar
    32    19    20   ar
    33    10    11    1
    34    32    33   ar
    35    33    35    1
    36    35    36   am
    37    35    37    2
    38    33    34   ar
    39    34    29   ar
    40     8     3    1
    41    20    12    1
    42    11     6    1
    43    20    15   ar
    44    27    21   ar
    45    36    38    1
    46    36    39    1
@<TRIPOS>MOLECULE
*****
 41 46 0 0 0
SMALL
GASTEIGER

@<TRIPOS>ATOM
      1 C         144.2229  141.2394  163.3128 C.2     1  UNL1        0.2301
      2 O         144.4203  142.7160  163.1369 O.2     1  UNL1       -0.2745
      3 N         143.8676  140.3844  162.1326 N.am    1  UNL1       -0.2793
      4 C         143.7097  141.0059  160.7766 C.3     1  UNL1        0.0935
      5 C         143.3544  140.1509  159.5965 C.3     1  UNL1        0.0242
      6 C         143.1570  138.6744  159.7724 C.3     1  UNL1        0.0328
      7 C         143.3150  138.0529  161.1284 C.3     1  UNL1        0.0242
      8 C         143.6703  138.9079  162.3085 C.3     1  UNL1        0.0935
      9 C         142.9219  138.9263  158.3125 C.3     1  UNL1        0.0737
     10 N         142.6546  137.4652  158.1033 N.3     1  UNL1       -0.2702
     11 C         142.8897  137.2133  159.5632 C.3     1  UNL1        0.0737
     12 C         142.2993  136.6102  156.9232 C.3     1  UNL1        0.0801
     13 C         141.3422  136.9741  155.8271 C.3     1  UNL1        0.0251
     14 C         141.2901  135.8300  154.8584 C.3     1  UNL1        0.0278
     15 C         142.2149  134.7590  155.3560 C.ar    1  UNL1       -0.0248
     16 C         142.5698  133.4069  154.8119 C.ar    1  UNL1       -0.0030
     17 C         143.5483  132.5371  155.5439 C.ar    1  UNL1        0.0174
     18 C         144.1720  133.0193  156.8200 C.ar    1  UNL1        0.0012
     19 C         143.8172  134.3713  157.3641 C.ar    1  UNL1       -0.0032
     20 C         142.8386  135.2412  156.6321 C.ar    1  UNL1       -0.0117
     21 C         143.9030  131.1850  154.9997 C.ar    1  UNL1        0.0842
     22 C         144.3668  130.1012  155.9273 C.ar    1  UNL1        0.0339
     23 C         144.7215  128.7493  155.3831 C.ar    1  UNL1        0.0626
     24 C         145.1852  127.6655  156.3106 C.3     1  UNL1        0.0522
     25 N         144.6125  128.4810  153.9112 N.ar    1  UNL1       -0.2283
     26 C         144.1488  129.5648  152.9837 C.ar    1  UNL1        0.1985
     27 N         143.7940  130.9168  153.5279 N.ar    1  UNL1       -0.2240
     28 C         144.3809  140.6179  164.6688 C.3     1  UNL1        0.1117
     29 C         141.3064  141.3801  167.8651 C.ar    1  UNL1        0.1389
     30 C         141.9290  142.5320  167.1334 C.ar    1  UNL1        0.0366
     31 C         142.9538  142.2780  166.0680 C.ar    1  UNL1       -0.0005
     32 C         143.3560  140.8720  165.7343 C.ar    1  UNL1       -0.0085
     33 C         142.7334  139.7200  166.4659 C.ar    1  UNL1        0.0527
     34 C         141.7086  139.9741  167.5314 C.ar    1  UNL1        0.0411
     35 C         143.1356  138.3140  166.1322 C.2     1  UNL1        0.2426
     36 N         144.2968  137.6786  166.8378 N.am    1  UNL1       -0.3253
     37 O         142.3767  137.5435  165.0929 O.2     1  UNL1       -0.2704
     38 H         144.7949  138.1843  167.5200 H       1  UNL1        0.1453
     39 H         144.5608  136.7558  166.6188 H       1  UNL1        0.1453
     40 C         140.2946  142.9273  169.6907 C.3     1  UNL1        0.2525
     41 O         140.2815  141.6342  168.9306 O.3     1  UNL1       -0.4714
@<TRIPOS>BOND
     1    40    41    1
     2    41    29    1
     3    29    30   ar
     4    30    31   ar
     5    31    32   ar
     6    32    28    1
     7    28     1    1
     8     1     2    2
     9     1     3   am
    10     3     4    1
    11     4     5    1
    12     5     6    1
    13     6     7    1
    14     7     8    1
    15     6     9    1
    16     9    10    1
    17    12    10    1
    18    12    13    1
    19    13    14    1
    20    14    15    1
    21    15    16   ar
    22    16    17   ar
    23    17    21    1
    24    21    22   ar
    25    22    23   ar
    26    23    24    1
    27    23    25   ar
    28    25    26   ar
    29    26    27   ar
    30    17    18   ar
    31    18    19   ar
    32    19    20   ar
    33    10    11    1
    34    32    33   ar
    35    33    35    1
    36    35    36   am
    37    35    37    2
    38    33    34   ar
    39    34    29   ar
    40     8     3    1
    41    20    12    1
    42    11     6    1
    43    20    15   ar
    44    27    21   ar
    45    36    38    1
    46    36    39    1
@<TRIPOS>MOLECULE
*****
 41 46 0 0 0
SMALL
GASTEIGER

@<TRIPOS>ATOM
      1 C         142.5780  137.3320  155.9234 C.2     1  UNL1        0.2301
      2 O         143.0257  137.9226  154.6193 O.2     1  UNL1       -0.2745
      3 N         142.8349  138.0655  157.2064 N.am    1  UNL1       -0.2793
      4 C         143.5394  139.3895  157.1853 C.3     1  UNL1        0.0935
      5 C         143.7963  140.1229  158.4683 C.3     1  UNL1        0.0242
      6 C         143.3486  139.5323  159.7724 C.3     1  UNL1        0.0328
      7 C         142.6440  138.2083  159.7935 C.3     1  UNL1        0.0242
      8 C         142.3872  137.4749  158.5106 C.3     1  UNL1        0.0935
      9 C         144.0006  140.8326  160.1386 C.3     1  UNL1        0.0737
     10 N         143.7119  140.5696  161.5869 N.3     1  UNL1       -0.2702
     11 C         143.0598  139.2693  161.2207 C.3     1  UNL1        0.0737
     12 C         143.9687  141.3030  162.8699 C.3     1  UNL1        0.0801
     13 C         145.0757  142.2844  163.1181 C.3     1  UNL1        0.0251
     14 C         144.9548  142.7717  164.5315 C.3     1  UNL1        0.0278
     15 C         143.7732  142.0916  165.1569 C.ar    1  UNL1       -0.0248
     16 C         143.1734  142.1816  166.5288 C.ar    1  UNL1       -0.0030
     17 C         141.9641  141.3638  166.8737 C.ar    1  UNL1        0.0174
     18 C         141.3547  140.4561  165.8468 C.ar    1  UNL1        0.0012
     19 C         141.9545  140.3662  164.4749 C.ar    1  UNL1       -0.0032
     20 C         143.1638  141.1839  164.1299 C.ar    1  UNL1       -0.0117
     21 C         141.3644  141.4538  168.2457 C.ar    1  UNL1        0.0842
     22 C         140.0904  140.7257  168.5566 C.ar    1  UNL1        0.0339
     23 C         139.4907  140.8157  169.9285 C.ar    1  UNL1        0.0626
     24 C         138.2167  140.0876  170.2394 C.3     1  UNL1        0.0522
     25 N         140.1650  141.6339  170.9896 N.ar    1  UNL1       -0.2283
     26 C         141.4391  142.3620  170.6787 C.ar    1  UNL1        0.1985
     27 N         142.0387  142.2720  169.3067 N.ar    1  UNL1       -0.2240
     28 C         141.8734  136.0080  155.9446 C.3     1  UNL1        0.1117
     29 C         144.2564  132.1930  156.0761 C.ar    1  UNL1        0.1389
     30 C         144.2451  133.1115  157.2620 C.ar    1  UNL1        0.0366
     31 C         143.4508  134.3831  157.2181 C.ar    1  UNL1       -0.0005
     32 C         142.6678  134.7363  155.9884 C.ar    1  UNL1       -0.0085
     33 C         142.6791  133.8178  154.8026 C.ar    1  UNL1        0.0527
     34 C         143.4734  132.5462  154.8464 C.ar    1  UNL1        0.0411
     35 C         141.8960  134.1710  153.5729 C.2     1  UNL1        0.2426
     36 N         140.8163  133.2528  153.0819 N.am    1  UNL1       -0.3253
     37 O         142.1927  135.4422  152.8342 O.2     1  UNL1       -0.2704
     38 H         140.6215  132.4184  153.5667 H       1  UNL1        0.1453
     39 H         140.3023  133.4846  152.2748 H       1  UNL1        0.1453
     40 C         144.8927  129.9004  155.0324 C.3     1  UNL1        0.2525
     41 O         145.0507  130.9213  156.1200 O.3     1  UNL1       -0.4714
@<TRIPOS>BOND
     1    40    41    1
     2    41    29    1
     3    29    30   ar
     4    30    31   ar
     5    31    32   ar
     6    32    28    1
     7    28     1    1
     8     1     2    2
     9     1     3   am
    10     3     4    1
    11     4     5    1
    12     5     6    1
    13     6     7    1
    14     7     8    1
    15     6     9    1
    16     9    10    1
    17    12    10    1
    18    12    13    1
    19    13    14    1
    20    14    15    1
    21    15    16   ar
    22    16    17   ar
    23    17    21    1
    24    21    22   ar
    25    22    23   ar
    26    23    24    1
    27    23    25   ar
    28    25    26   ar
    29    26    27   ar
    30    17    18   ar
    31    18    19   ar
    32    19    20   ar
    33    10    11    1
    34    32    33   ar
    35    33    35    1
    36    35    36   am
    37    35    37    2
    38    33    34   ar
    39    34    29   ar
    40     8     3    1
    41    20    12    1
    42    11     6    1
    43    20    15   ar
    44    27    21   ar
    45    36    38    1
    46    36    39    1
@<TRIPOS>MOLECULE
*****
 41 46 0 0 0
SMALL
GASTEIGER

@<TRIPOS>ATOM
      1 C         140.3541  137.2289  155.5202 C.2     1  UNL1        0.2301
      2 O         138.8815  137.0317  155.3137 O.2     1  UNL1       -0.2745
      3 N         140.8674  137.7151  156.8432 N.am    1  UNL1       -0.2793
      4 C         139.9082  138.0039  157.9596 C.3     1  UNL1        0.0935
      5 C         140.4216  138.4901  159.2825 C.3     1  UNL1        0.0242
      6 C         141.8941  138.6874  159.4890 C.3     1  UNL1        0.0328
      7 C         142.8534  138.3985  158.3726 C.3     1  UNL1        0.0242
      8 C         142.3400  137.9124  157.0497 C.3     1  UNL1        0.0935
      9 C         141.2644  139.0685  160.7959 C.3     1  UNL1        0.0737
     10 N         142.6202  139.3749  161.3600 N.3     1  UNL1       -0.2702
     11 C         143.2499  138.9938  160.0530 C.3     1  UNL1        0.0737
     12 C         143.1335  139.8610  162.6829 C.3     1  UNL1        0.0801
     13 C         144.5690  140.1259  163.0282 C.3     1  UNL1        0.0251
     14 C         144.6242  140.5962  164.4514 C.3     1  UNL1        0.0278
     15 C         143.2229  140.6221  164.9857 C.ar    1  UNL1       -0.0248
     16 C         142.6667  141.0006  166.3264 C.ar    1  UNL1       -0.0030
     17 C         141.1892  140.9248  166.5740 C.ar    1  UNL1        0.0174
     18 C         140.2679  140.4705  165.4809 C.ar    1  UNL1        0.0012
     19 C         140.8241  140.0919  164.1403 C.ar    1  UNL1       -0.0032
     20 C         142.3016  140.1677  163.8927 C.ar    1  UNL1       -0.0117
     21 C         140.6331  141.3034  167.9147 C.ar    1  UNL1        0.0842
     22 C         140.7381  142.7197  168.3976 C.ar    1  UNL1        0.0339
     23 C         140.1820  143.0982  169.7382 C.ar    1  UNL1        0.0626
     24 C         140.2871  144.5144  170.2210 C.3     1  UNL1        0.0522
     25 N         139.5208  142.0605  170.5961 N.ar    1  UNL1       -0.2283
     26 C         139.4157  140.6442  170.1132 C.ar    1  UNL1        0.1985
     27 N         139.9718  140.2657  168.7725 N.ar    1  UNL1       -0.2240
     28 C         141.3133  136.9401  154.4038 C.3     1  UNL1        0.1117
     29 C         141.4675  132.8308  152.5764 C.ar    1  UNL1        0.1389
     30 C         140.5314  133.8634  152.0220 C.ar    1  UNL1        0.0366
     31 C         140.4800  135.2332  152.6312 C.ar    1  UNL1       -0.0005
     32 C         141.3647  135.5703  153.7947 C.ar    1  UNL1       -0.0085
     33 C         142.3008  134.5376  154.3490 C.ar    1  UNL1        0.0527
     34 C         142.3522  133.1679  153.7399 C.ar    1  UNL1        0.0411
     35 C         143.1855  134.8747  155.5125 C.2     1  UNL1        0.2426
     36 N         144.4446  135.6602  155.2945 N.am    1  UNL1       -0.3253
     37 O         142.8111  134.4263  156.8940 O.2     1  UNL1       -0.2704
     38 H         144.6903  135.9546  154.3877 H       1  UNL1        0.1453
     39 H         145.0252  135.8815  156.0581 H       1  UNL1        0.1453
     40 C         140.6617  130.3614  152.5207 C.3     1  UNL1        0.2525
     41 O         141.5189  131.4609  151.9673 O.3     1  UNL1       -0.4714
@<TRIPOS>BOND
     1    40    41    1
     2    41    29    1
     3    29    30   ar
     4    30    31   ar
     5    31    32   ar
     6    32    28    1
     7    28     1    1
     8     1     2    2
     9     1     3   am
    10     3     4    1
    11     4     5    1
    12     5     6    1
    13     6     7    1
    14     7     8    1
    15     6     9    1
    16     9    10    1
    17    12    10    1
    18    12    13    1
    19    13    14    1
    20    14    15    1
    21    15    16   ar
    22    16    17   ar
    23    17    21    1
    24    21    22   ar
    25    22    23   ar
    26    23    24    1
    27    23    25   ar
    28    25    26   ar
    29    26    27   ar
    30    17    18   ar
    31    18    19   ar
    32    19    20   ar
    33    10    11    1
    34    32    33   ar
    35    33    35    1
    36    35    36   am
    37    35    37    2
    38    33    34   ar
    39    34    29   ar
    40     8     3    1
    41    20    12    1
    42    11     6    1
    43    20    15   ar
    44    27    21   ar
    45    36    38    1
    46    36    39    1
@<TRIPOS>MOLECULE
*****
 41 46 0 0 0
SMALL
GASTEIGER

@<TRIPOS>ATOM
      1 C         141.6274  144.7589  162.5430 C.2     1  UNL1        0.2301
      2 O         140.5470  145.7759  162.3228 O.2     1  UNL1       -0.2745
      3 N         141.9948  143.8052  161.4450 N.am    1  UNL1       -0.2793
      4 C         141.2816  143.8685  160.1269 C.3     1  UNL1        0.0935
      5 C         141.6490  142.9148  159.0289 C.3     1  UNL1        0.0242
      6 C         142.7294  141.8978  159.2491 C.3     1  UNL1        0.0328
      7 C         143.4425  141.8345  160.5672 C.3     1  UNL1        0.0242
      8 C         143.0752  142.7882  161.6651 C.3     1  UNL1        0.0935
      9 C         142.2569  141.6644  157.8447 C.3     1  UNL1        0.0737
     10 N         143.2489  140.5490  157.6963 N.3     1  UNL1       -0.2702
     11 C         143.7213  140.7824  159.1007 C.3     1  UNL1        0.0737
     12 C         143.6162  139.5953  156.5984 C.3     1  UNL1        0.0801
     13 C         144.2784  139.9563  155.3018 C.3     1  UNL1        0.0251
     14 C         144.4573  138.6973  154.5063 C.3     1  UNL1        0.0278
     15 C         143.9056  137.5582  155.3113 C.ar    1  UNL1       -0.0248
     16 C         143.8094  136.0872  155.0339 C.ar    1  UNL1       -0.0030
     17 C         143.1934  135.1712  156.0496 C.ar    1  UNL1        0.0174
     18 C         142.6736  135.7262  157.3425 C.ar    1  UNL1        0.0012
     19 C         142.7697  137.1971  157.6198 C.ar    1  UNL1       -0.0032
     20 C         143.3858  138.1132  156.6042 C.ar    1  UNL1       -0.0117
     21 C         143.0973  133.7002  155.7721 C.ar    1  UNL1        0.0842
     22 C         141.7854  133.0980  155.3642 C.ar    1  UNL1        0.0339
     23 C         141.6893  131.6270  155.0869 C.ar    1  UNL1        0.0626
     24 C         140.3775  131.0248  154.6789 C.3     1  UNL1        0.0522
     25 N         142.9051  130.7582  155.2174 N.ar    1  UNL1       -0.2283
     26 C         144.2170  131.3604  155.6253 C.ar    1  UNL1        0.1985
     27 N         144.3130  132.8314  155.9027 N.ar    1  UNL1       -0.2240
     28 C         142.3406  144.6957  163.8611 C.3     1  UNL1        0.1117
     29 C         141.3380  141.4460  166.8080 C.ar    1  UNL1        0.1389
     30 C         140.2387  142.1953  166.1151 C.ar    1  UNL1        0.0366
     31 C         140.5729  143.2785  165.1328 C.ar    1  UNL1       -0.0005
     32 C         142.0064  143.6124  164.8434 C.ar    1  UNL1       -0.0085
     33 C         143.1056  142.8630  165.5363 C.ar    1  UNL1        0.0527
     34 C         142.7714  141.7798  166.5185 C.ar    1  UNL1        0.0411
     35 C         144.5391  143.1969  165.2469 C.2     1  UNL1        0.2426
     36 N         145.2967  142.4175  164.2132 N.am    1  UNL1       -0.3253
     37 O         145.2149  144.3101  165.9911 O.2     1  UNL1       -0.2704
     38 H         144.8532  141.6868  163.7247 H       1  UNL1        0.1453
     39 H         146.2375  142.6367  164.0233 H       1  UNL1        0.1453
     40 C         139.6021  140.2244  168.3062 C.3     1  UNL1        0.2525
     41 O         141.0038  140.3627  167.7903 O.3     1  UNL1       -0.4714
@<TRIPOS>BOND
     1    40    41    1
     2    41    29    1
     3    29    30   ar
     4    30    31   ar
     5    31    32   ar
     6    32    28    1
     7    28     1    1
     8     1     2    2
     9     1     3   am
    10     3     4    1
    11     4     5    1
    12     5     6    1
    13     6     7    1
    14     7     8    1
    15     6     9    1
    16     9    10    1
    17    12    10    1
    18    12    13    1
    19    13    14    1
    20    14    15    1
    21    15    16   ar
    22    16    17   ar
    23    17    21    1
    24    21    22   ar
    25    22    23   ar
    26    23    24    1
    27    23    25   ar
    28    25    26   ar
    29    26    27   ar
    30    17    18   ar
    31    18    19   ar
    32    19    20   ar
    33    10    11    1
    34    32    33   ar
    35    33    35    1
    36    35    36   am
    37    35    37    2
    38    33    34   ar
    39    34    29   ar
    40     8     3    1
    41    20    12    1
    42    11     6    1
    43    20    15   ar
    44    27    21   ar
    45    36    38    1
    46    36    39    1
@<TRIPOS>MOLECULE
*****
 41 46 0 0 0
SMALL
GASTEIGER

@<TRIPOS>ATOM
      1 C         142.0649  142.9154  160.8408 C.2     1  UNL1        0.2301
      2 O         143.3397  143.6954  160.9692 O.2     1  UNL1       -0.2745
      3 N         142.0173  141.6942  159.9710 N.am    1  UNL1       -0.2793
      4 C         143.2444  141.2531  159.2297 C.3     1  UNL1        0.0935
      5 C         143.1967  140.0319  158.3599 C.3     1  UNL1        0.0242
      6 C         141.9219  139.2519  158.2315 C.3     1  UNL1        0.0328
      7 C         140.6948  139.6931  158.9728 C.3     1  UNL1        0.0242
      8 C         140.7425  140.9142  159.8425 C.3     1  UNL1        0.0935
      9 C         142.9095  138.5267  157.3663 C.3     1  UNL1        0.0737
     10 N         141.8545  137.5249  157.0014 N.3     1  UNL1       -0.2702
     11 C         140.8668  138.2500  157.8667 C.3     1  UNL1        0.0737
     12 C         141.8068  136.3037  156.1317 C.3     1  UNL1        0.0801
     13 C         141.0781  136.1788  154.8266 C.3     1  UNL1        0.0251
     14 C         141.3003  134.7909  154.3026 C.3     1  UNL1        0.0278
     15 C         142.1663  134.0582  155.2839 C.ar    1  UNL1       -0.0248
     16 C         142.7104  132.6604  155.2942 C.ar    1  UNL1       -0.0030
     17 C         143.5675  132.1975  156.4349 C.ar    1  UNL1        0.0174
     18 C         143.8804  133.1325  157.5653 C.ar    1  UNL1        0.0012
     19 C         143.3364  134.5302  157.5551 C.ar    1  UNL1       -0.0032
     20 C         142.4793  134.9932  156.4143 C.ar    1  UNL1       -0.0117
     21 C         144.1115  130.7997  156.4451 C.ar    1  UNL1        0.0842
     22 C         144.2534  130.0594  157.7420 C.ar    1  UNL1        0.0339
     23 C         144.7974  128.6617  157.7521 C.ar    1  UNL1        0.0626
     24 C         144.9393  127.9215  159.0490 C.3     1  UNL1        0.0522
     25 N         145.1995  128.0040  156.4653 N.ar    1  UNL1       -0.2283
     26 C         145.0576  128.7442  155.1685 C.ar    1  UNL1        0.1985
     27 N         144.5136  130.1420  155.1583 N.ar    1  UNL1       -0.2240
     28 C         140.8378  143.3565  161.5821 C.3     1  UNL1        0.1117
     29 C         140.3100  142.2589  165.9141 C.ar    1  UNL1        0.1389
     30 C         141.6880  142.4164  165.3429 C.ar    1  UNL1        0.0366
     31 C         141.8639  142.7823  163.8989 C.ar    1  UNL1       -0.0005
     32 C         140.6619  142.9906  163.0261 C.ar    1  UNL1       -0.0085
     33 C         139.2839  142.8332  163.5974 C.ar    1  UNL1        0.0527
     34 C         139.1080  142.4673  165.0414 C.ar    1  UNL1        0.0411
     35 C         138.0819  143.0416  162.7246 C.2     1  UNL1        0.2426
     36 N         137.5728  144.4290  162.4680 N.am    1  UNL1       -0.3253
     37 O         137.3889  141.8625  162.1085 O.2     1  UNL1       -0.2704
     38 H         138.0276  145.2028  162.8724 H       1  UNL1        0.1453
     39 H         136.7838  144.5657  161.8952 H       1  UNL1        0.1453
     40 C         140.6840  142.7861  168.4305 C.3     1  UNL1        0.2525
     41 O         140.1340  141.8930  167.3582 O.3     1  UNL1       -0.4714
@<TRIPOS>BOND
     1    40    41    1
     2    41    29    1
     3    29    30   ar
     4    30    31   ar
     5    31    32   ar
     6    32    28    1
     7    28     1    1
     8     1     2    2
     9     1     3   am
    10     3     4    1
    11     4     5    1
    12     5     6    1
    13     6     7    1
    14     7     8    1
    15     6     9    1
    16     9    10    1
    17    12    10    1
    18    12    13    1
    19    13    14    1
    20    14    15    1
    21    15    16   ar
    22    16    17   ar
    23    17    21    1
    24    21    22   ar
    25    22    23   ar
    26    23    24    1
    27    23    25   ar
    28    25    26   ar
    29    26    27   ar
    30    17    18   ar
    31    18    19   ar
    32    19    20   ar
    33    10    11    1
    34    32    33   ar
    35    33    35    1
    36    35    36   am
    37    35    37    2
    38    33    34   ar
    39    34    29   ar
    40     8     3    1
    41    20    12    1
    42    11     6    1
    43    20    15   ar
    44    27    21   ar
    45    36    38    1
    46    36    39    1
@<TRIPOS>MOLECULE
*****
 41 46 0 0 0
SMALL
GASTEIGER

@<TRIPOS>ATOM
      1 C         140.4031  145.2816  162.0219 C.2     1  UNL1        0.2301
      2 O         139.1254  146.0032  161.7107 O.2     1  UNL1       -0.2745
      3 N         140.9868  144.3257  161.0241 N.am    1  UNL1       -0.2793
      4 C         140.2928  144.0913  159.7152 C.3     1  UNL1        0.0935
      5 C         140.8765  143.1354  158.7175 C.3     1  UNL1        0.0242
      6 C         142.1542  142.4138  159.0287 C.3     1  UNL1        0.0328
      7 C         142.8482  142.6482  160.3377 C.3     1  UNL1        0.0242
      8 C         142.2645  143.6041  161.3354 C.3     1  UNL1        0.0935
      9 C         141.7620  141.9368  157.6617 C.3     1  UNL1        0.0737
     10 N         142.9797  141.0619  157.6176 N.3     1  UNL1       -0.2702
     11 C         143.3718  141.5389  158.9846 C.3     1  UNL1        0.0737
     12 C         143.5634  140.1059  156.6199 C.3     1  UNL1        0.0801
     13 C         144.3710  140.4768  155.4116 C.3     1  UNL1        0.0251
     14 C         144.7487  139.2114  154.7002 C.3     1  UNL1        0.0278
     15 C         144.1745  138.0585  155.4689 C.ar    1  UNL1       -0.0248
     16 C         144.2240  136.5766  155.2419 C.ar    1  UNL1       -0.0030
     17 C         143.5410  135.6476  156.2012 C.ar    1  UNL1        0.0174
     18 C         142.8085  136.2005  157.3877 C.ar    1  UNL1        0.0012
     19 C         142.7589  137.6823  157.6148 C.ar    1  UNL1       -0.0032
     20 C         143.4419  138.6114  156.6554 C.ar    1  UNL1       -0.0117
     21 C         143.5906  134.1657  155.9741 C.ar    1  UNL1        0.0842
     22 C         144.1587  133.2637  157.0294 C.ar    1  UNL1        0.0339
     23 C         144.2083  131.7819  156.8022 C.ar    1  UNL1        0.0626
     24 C         144.7763  130.8799  157.8575 C.3     1  UNL1        0.0522
     25 N         143.6898  131.2019  155.5196 N.ar    1  UNL1       -0.2283
     26 C         143.1217  132.1039  154.4643 C.ar    1  UNL1        0.1985
     27 N         143.0722  133.5858  154.6916 N.ar    1  UNL1       -0.2240
     28 C         141.0971  145.5160  163.3309 C.3     1  UNL1        0.1117
     29 C         141.7257  142.0967  166.1881 C.ar    1  UNL1        0.1389
     30 C         142.8743  142.6149  165.3743 C.ar    1  UNL1        0.0366
     31 C         142.6647  143.7546  164.4219 C.ar    1  UNL1       -0.0005
     32 C         141.3066  144.3762  164.2834 C.ar    1  UNL1       -0.0085
     33 C         140.1581  143.8580  165.0972 C.ar    1  UNL1        0.0527
     34 C         140.3676  142.7183  166.0495 C.ar    1  UNL1        0.0411
     35 C         138.8000  144.4796  164.9586 C.2     1  UNL1        0.2426
     36 N         137.8955  144.0632  163.8368 N.am    1  UNL1       -0.3253
     37 O         138.3463  145.5176  165.9418 O.2     1  UNL1       -0.2704
     38 H         138.1932  143.3819  163.1914 H       1  UNL1        0.1453
     39 H         137.0041  144.4712  163.7458 H       1  UNL1        0.1453
     40 C         141.6692  139.5493  166.6958 C.3     1  UNL1        0.2525
     41 O         141.9352  140.9570  167.1406 O.3     1  UNL1       -0.4714
@<TRIPOS>BOND
     1    40    41    1
     2    41    29    1
     3    29    30   ar
     4    30    31   ar
     5    31    32   ar
     6    32    28    1
     7    28     1    1
     8     1     2    2
     9     1     3   am
    10     3     4    1
    11     4     5    1
    12     5     6    1
    13     6     7    1
    14     7     8    1
    15     6     9    1
    16     9    10    1
    17    12    10    1
    18    12    13    1
    19    13    14    1
    20    14    15    1
    21    15    16   ar
    22    16    17   ar
    23    17    21    1
    24    21    22   ar
    25    22    23   ar
    26    23    24    1
    27    23    25   ar
    28    25    26   ar
    29    26    27   ar
    30    17    18   ar
    31    18    19   ar
    32    19    20   ar
    33    10    11    1
    34    32    33   ar
    35    33    35    1
    36    35    36   am
    37    35    37    2
    38    33    34   ar
    39    34    29   ar
    40     8     3    1
    41    20    12    1
    42    11     6    1
    43    20    15   ar
    44    27    21   ar
    45    36    38    1
    46    36    39    1
