@<TRIPOS>MOLECULE
*****
 28 31 0 0 0
SMALL
GASTEIGER

@<TRIPOS>ATOM
      1 C         141.4679  142.0874  166.2796 C.2     1  UNL1        0.0020
      2 C         140.9666  142.5268  167.6234 C.2     1  UNL1        0.0130
      3 C         141.2343  141.6850  168.8357 C.3     1  UNL1        0.1542
      4 C         140.4654  142.9662  168.9671 C.3     1  UNL1        0.0614
      5 C         139.9641  143.4056  170.3108 C.3     1  UNL1        0.0725
      6 N         140.2318  142.5638  171.5231 N.3     1  UNL1       -0.2972
      7 C         141.0008  141.2826  171.3918 C.3     1  UNL1        0.0725
      8 C         141.5020  140.8432  170.0480 C.3     1  UNL1        0.0614
      9 O         142.0033  140.4038  168.7042 O.3     1  UNL1       -0.4785
     10 C         142.5045  139.9644  167.3605 C.ar    1  UNL1        0.1386
     11 C         143.2735  138.6832  167.2291 C.ar    1  UNL1        0.0369
     12 C         143.7748  138.2438  165.8854 C.ar    1  UNL1        0.0031
     13 C         143.5071  139.0856  164.6730 C.ar    1  UNL1        0.0002
     14 C         142.7382  140.3667  164.8044 C.ar    1  UNL1        0.0030
     15 C         142.2369  140.8062  166.1482 C.ar    1  UNL1        0.0338
     16 H         139.3239  142.3228  171.9206 H       1  UNL1        0.1233
     17 C         140.6649  144.6127  162.6426 C.ar    1  UNL1        0.0534
     18 C         139.5851  143.7317  163.1973 C.ar    1  UNL1        0.0045
     19 C         139.8527  142.8899  164.4096 C.ar    1  UNL1        0.0001
     20 C         141.2003  142.9292  165.0673 C.ar    1  UNL1       -0.0001
     21 C         142.2802  143.8102  164.5126 C.ar    1  UNL1        0.0001
     22 C         142.0125  144.6520  163.3003 C.ar    1  UNL1        0.0045
     23 N         140.8653  144.9964  160.0808 N.am    1  UNL1       -0.3009
     24 C         140.3972  145.4545  161.4303 C.2     1  UNL1        0.2458
     25 O         139.6614  146.7545  161.5674 O.2     1  UNL1       -0.2701
     26 H         141.3482  144.1432  159.9909 H       1  UNL1        0.1497
     27 C         141.5667  145.8338  157.7236 C.3     1  UNL1        0.0230
     28 C         140.5976  145.8382  158.8685 C.3     1  UNL1        0.0898
@<TRIPOS>BOND
     1    27    28    1
     2    28    23    1
     3    23    24   am
     4    24    25    2
     5    24    17    1
     6    17    18   ar
     7    18    19   ar
     8    19    20   ar
     9    20     1    1
    10     1     2    2
    11     2     3    1
    12     3     4    1
    13     4     5    1
    14     5     6    1
    15     6     7    1
    16     7     8    1
    17     3     9    1
    18     9    10    1
    19    10    11   ar
    20    11    12   ar
    21    12    13   ar
    22    13    14   ar
    23    14    15   ar
    24    20    21   ar
    25    21    22   ar
    26    22    17   ar
    27    15     1    1
    28     8     3    1
    29    15    10   ar
    30    23    26    1
    31     6    16    1
@<TRIPOS>MOLECULE
*****
 28 31 0 0 0
SMALL
GASTEIGER

@<TRIPOS>ATOM
      1 C         141.2044  142.2340  165.3146 C.2     1  UNL1        0.0020
      2 C         142.6154  141.9044  164.9265 C.2     1  UNL1        0.0130
      3 C         143.2108  142.5012  163.6858 C.3     1  UNL1        0.1542
      4 C         144.0263  141.5748  164.5383 C.3     1  UNL1        0.0614
      5 C         145.4371  141.2452  164.1501 C.3     1  UNL1        0.0725
      6 N         146.0326  141.8420  162.9094 N.3     1  UNL1       -0.2972
      7 C         145.2171  142.7683  162.0569 C.3     1  UNL1        0.0725
      8 C         143.8062  143.0979  162.4451 C.3     1  UNL1        0.0614
      9 O         142.3953  143.4276  162.8332 O.3     1  UNL1       -0.4785
     10 C         140.9844  143.7571  163.2214 C.ar    1  UNL1        0.1386
     11 C         140.1688  144.6835  162.3688 C.ar    1  UNL1        0.0369
     12 C         138.7579  145.0131  162.7570 C.ar    1  UNL1        0.0031
     13 C         138.1625  144.4164  163.9977 C.ar    1  UNL1        0.0002
     14 C         138.9780  143.4900  164.8502 C.ar    1  UNL1        0.0030
     15 C         140.3889  143.1604  164.4621 C.ar    1  UNL1        0.0338
     16 H         146.3127  141.0632  162.3133 H       1  UNL1        0.1233
     17 C         139.4181  140.4438  169.0367 C.ar    1  UNL1        0.0534
     18 C         140.1753  141.7362  169.1150 C.ar    1  UNL1        0.0045
     19 C         140.7707  142.3330  167.8743 C.ar    1  UNL1        0.0001
     20 C         140.6090  141.6373  166.5553 C.ar    1  UNL1       -0.0001
     21 C         139.8518  140.3447  166.4770 C.ar    1  UNL1        0.0001
     22 C         139.2563  139.7480  167.7177 C.ar    1  UNL1        0.0045
     23 N         137.3478  139.5832  170.3495 N.am    1  UNL1       -0.3009
     24 C         138.8227  139.8470  170.2774 C.2     1  UNL1        0.2458
     25 O         139.7022  139.5141  171.4461 O.2     1  UNL1       -0.2701
     26 H         136.7706  139.8017  169.5825 H       1  UNL1        0.1497
     27 C         136.2209  137.5839  171.5673 C.3     1  UNL1        0.0230
     28 C         136.7524  138.9865  171.5902 C.3     1  UNL1        0.0898
@<TRIPOS>BOND
     1    27    28    1
     2    28    23    1
     3    23    24   am
     4    24    25    2
     5    24    17    1
     6    17    18   ar
     7    18    19   ar
     8    19    20   ar
     9    20     1    1
    10     1     2    2
    11     2     3    1
    12     3     4    1
    13     4     5    1
    14     5     6    1
    15     6     7    1
    16     7     8    1
    17     3     9    1
    18     9    10    1
    19    10    11   ar
    20    11    12   ar
    21    12    13   ar
    22    13    14   ar
    23    14    15   ar
    24    20    21   ar
    25    21    22   ar
    26    22    17   ar
    27    15     1    1
    28     8     3    1
    29    15    10   ar
    30    23    26    1
    31     6    16    1
@<TRIPOS>MOLECULE
*****
 28 31 0 0 0
SMALL
GASTEIGER

@<TRIPOS>ATOM
      1 C         141.2493  142.2926  164.8843 C.2     1  UNL1        0.0020
      2 C         140.4652  143.3176  164.1196 C.2     1  UNL1        0.0130
      3 C         141.0057  143.8693  162.8337 C.3     1  UNL1        0.1542
      4 C         139.6812  144.3425  163.3549 C.3     1  UNL1        0.0614
      5 C         138.8972  145.3675  162.5903 C.3     1  UNL1        0.0725
      6 N         139.4377  145.9192  161.3044 N.3     1  UNL1       -0.2972
      7 C         140.7622  145.4460  160.7832 C.3     1  UNL1        0.0725
      8 C         141.5462  144.4210  161.5478 C.3     1  UNL1        0.0614
      9 O         142.3303  143.3960  162.3125 O.3     1  UNL1       -0.4785
     10 C         143.1143  142.3710  163.0771 C.ar    1  UNL1        0.1386
     11 C         144.4388  141.8977  162.5559 C.ar    1  UNL1        0.0369
     12 C         145.2228  140.8728  163.3206 C.ar    1  UNL1        0.0031
     13 C         144.6824  140.3211  164.6064 C.ar    1  UNL1        0.0002
     14 C         143.3579  140.7943  165.1277 C.ar    1  UNL1        0.0030
     15 C         142.5738  141.8193  164.3630 C.ar    1  UNL1        0.0338
     16 H         139.5129  146.9292  161.4259 H       1  UNL1        0.1233
     17 C         139.6279  140.6374  168.7419 C.ar    1  UNL1        0.0534
     18 C         140.3955  141.9261  168.7426 C.ar    1  UNL1        0.0045
     19 C         140.9360  142.4778  167.4567 C.ar    1  UNL1        0.0001
     20 C         140.7088  141.7409  166.1701 C.ar    1  UNL1       -0.0001
     21 C         139.9412  140.4521  166.1694 C.ar    1  UNL1        0.0001
     22 C         139.4007  139.9004  167.4553 C.ar    1  UNL1        0.0045
     23 N         137.7200  139.4704  170.0639 N.am    1  UNL1       -0.3009
     24 C         139.0874  140.0857  170.0278 C.2     1  UNL1        0.2458
     25 O         139.9145  140.1494  171.2776 O.2     1  UNL1       -0.2701
     26 H         137.1772  139.4286  169.2436 H       1  UNL1        0.1497
     27 C         135.7589  138.4427  171.4233 C.3     1  UNL1        0.0230
     28 C         137.1795  138.9187  171.3498 C.3     1  UNL1        0.0898
@<TRIPOS>BOND
     1    27    28    1
     2    28    23    1
     3    23    24   am
     4    24    25    2
     5    24    17    1
     6    17    18   ar
     7    18    19   ar
     8    19    20   ar
     9    20     1    1
    10     1     2    2
    11     2     3    1
    12     3     4    1
    13     4     5    1
    14     5     6    1
    15     6     7    1
    16     7     8    1
    17     3     9    1
    18     9    10    1
    19    10    11   ar
    20    11    12   ar
    21    12    13   ar
    22    13    14   ar
    23    14    15   ar
    24    20    21   ar
    25    21    22   ar
    26    22    17   ar
    27    15     1    1
    28     8     3    1
    29    15    10   ar
    30    23    26    1
    31     6    16    1
@<TRIPOS>MOLECULE
*****
 28 31 0 0 0
SMALL
GASTEIGER

@<TRIPOS>ATOM
      1 C         140.6083  141.0900  164.7499 C.2     1  UNL1        0.0020
      2 C         140.8368  142.5304  164.3990 C.2     1  UNL1        0.0130
      3 C         140.2630  143.0939  163.1328 C.3     1  UNL1        0.1542
      4 C         141.0652  143.9707  164.0480 C.3     1  UNL1        0.0614
      5 C         141.2936  145.4110  163.6970 C.3     1  UNL1        0.0725
      6 N         140.7198  145.9745  162.4308 N.3     1  UNL1       -0.2972
      7 C         139.9176  145.0977  161.5156 C.3     1  UNL1        0.0725
      8 C         139.6892  143.6574  161.8666 C.3     1  UNL1        0.0614
      9 O         139.4607  142.2170  162.2176 O.3     1  UNL1       -0.4785
     10 C         139.2323  140.7767  162.5686 C.ar    1  UNL1        0.1386
     11 C         138.4300  139.8998  161.6534 C.ar    1  UNL1        0.0369
     12 C         138.2015  138.4595  162.0044 C.ar    1  UNL1        0.0031
     13 C         138.7753  137.8960  163.2706 C.ar    1  UNL1        0.0002
     14 C         139.5776  138.7728  164.1857 C.ar    1  UNL1        0.0030
     15 C         139.8061  140.2132  163.8348 C.ar    1  UNL1        0.0338
     16 H         141.5045  146.3303  161.8847 H       1  UNL1        0.1233
     17 C         142.3297  139.3994  168.5485 C.ar    1  UNL1        0.0534
     18 C         141.0636  140.2025  168.5912 C.ar    1  UNL1        0.0045
     19 C         140.4898  140.7660  167.3250 C.ar    1  UNL1        0.0001
     20 C         141.1821  140.5264  166.0161 C.ar    1  UNL1       -0.0001
     21 C         142.4483  139.7233  165.9734 C.ar    1  UNL1        0.0001
     22 C         143.0221  139.1598  167.2395 C.ar    1  UNL1        0.0045
     23 N         143.4452  137.4373  169.8352 N.am    1  UNL1       -0.3009
     24 C         142.9035  138.8359  169.8146 C.2     1  UNL1        0.2458
     25 O         142.9356  139.6710  171.0603 O.2     1  UNL1       -0.2701
     26 H         143.4241  136.8892  169.0177 H       1  UNL1        0.1497
     27 C         144.9699  135.7151  171.0433 C.3     1  UNL1        0.0230
     28 C         144.0190  136.8738  171.1014 C.3     1  UNL1        0.0898
@<TRIPOS>BOND
     1    27    28    1
     2    28    23    1
     3    23    24   am
     4    24    25    2
     5    24    17    1
     6    17    18   ar
     7    18    19   ar
     8    19    20   ar
     9    20     1    1
    10     1     2    2
    11     2     3    1
    12     3     4    1
    13     4     5    1
    14     5     6    1
    15     6     7    1
    16     7     8    1
    17     3     9    1
    18     9    10    1
    19    10    11   ar
    20    11    12   ar
    21    12    13   ar
    22    13    14   ar
    23    14    15   ar
    24    20    21   ar
    25    21    22   ar
    26    22    17   ar
    27    15     1    1
    28     8     3    1
    29    15    10   ar
    30    23    26    1
    31     6    16    1
@<TRIPOS>MOLECULE
*****
 28 31 0 0 0
SMALL
GASTEIGER

@<TRIPOS>ATOM
      1 C         139.8769  141.9472  165.7174 C.2     1  UNL1        0.0020
      2 C         140.2273  142.4828  167.0740 C.2     1  UNL1        0.0130
      3 C         140.1336  141.5939  168.2785 C.3     1  UNL1        0.1542
      4 C         140.5778  143.0185  168.4305 C.3     1  UNL1        0.0614
      5 C         140.9282  143.5541  169.7871 C.3     1  UNL1        0.0725
      6 N         140.8345  142.6651  170.9916 N.3     1  UNL1       -0.2972
      7 C         140.3903  141.2405  170.8396 C.3     1  UNL1        0.0725
      8 C         140.0399  140.7049  169.4831 C.3     1  UNL1        0.0614
      9 O         139.6894  140.1692  168.1265 O.3     1  UNL1       -0.4785
     10 C         139.3390  139.6335  166.7699 C.ar    1  UNL1        0.1386
     11 C         138.8948  138.2088  166.6178 C.ar    1  UNL1        0.0369
     12 C         138.5444  137.6732  165.2613 C.ar    1  UNL1        0.0031
     13 C         138.6381  138.5622  164.0568 C.ar    1  UNL1        0.0002
     14 C         139.0823  139.9868  164.2088 C.ar    1  UNL1        0.0030
     15 C         139.4327  140.5225  165.5654 C.ar    1  UNL1        0.0338
     16 H         140.1808  143.1101  171.6359 H       1  UNL1        0.1233
     17 C         140.1580  144.6141  162.1038 C.ar    1  UNL1        0.0534
     18 C         138.8903  144.5667  162.9041 C.ar    1  UNL1        0.0045
     19 C         138.7966  143.6777  164.1086 C.ar    1  UNL1        0.0001
     20 C         139.9706  142.8361  164.5129 C.ar    1  UNL1       -0.0001
     21 C         141.2384  142.8836  163.7125 C.ar    1  UNL1        0.0001
     22 C         141.3321  143.7726  162.5080 C.ar    1  UNL1        0.0045
     23 N         141.1410  145.1219  159.7531 N.am    1  UNL1       -0.3009
     24 C         140.2517  145.5031  160.8993 C.2     1  UNL1        0.2458
     25 O         139.4561  146.7735  160.8409 O.2     1  UNL1       -0.2701
     26 H         141.6632  144.2881  159.7914 H       1  UNL1        0.1497
     27 C         140.1926  145.9286  157.4728 C.3     1  UNL1        0.0230
     28 C         141.2347  146.0109  158.5485 C.3     1  UNL1        0.0898
@<TRIPOS>BOND
     1    27    28    1
     2    28    23    1
     3    23    24   am
     4    24    25    2
     5    24    17    1
     6    17    18   ar
     7    18    19   ar
     8    19    20   ar
     9    20     1    1
    10     1     2    2
    11     2     3    1
    12     3     4    1
    13     4     5    1
    14     5     6    1
    15     6     7    1
    16     7     8    1
    17     3     9    1
    18     9    10    1
    19    10    11   ar
    20    11    12   ar
    21    12    13   ar
    22    13    14   ar
    23    14    15   ar
    24    20    21   ar
    25    21    22   ar
    26    22    17   ar
    27    15     1    1
    28     8     3    1
    29    15    10   ar
    30    23    26    1
    31     6    16    1
@<TRIPOS>MOLECULE
*****
 28 31 0 0 0
SMALL
GASTEIGER

@<TRIPOS>ATOM
      1 C         141.2068  141.4520  166.3553 C.2     1  UNL1        0.0020
      2 C         141.8453  141.9650  167.6120 C.2     1  UNL1        0.0130
      3 C         141.3230  141.5314  168.9496 C.3     1  UNL1        0.1542
      4 C         142.4838  142.4779  168.8687 C.3     1  UNL1        0.0614
      5 C         143.1222  142.9908  170.1254 C.3     1  UNL1        0.0725
      6 N         142.5998  142.5572  171.4630 N.3     1  UNL1       -0.2972
      7 C         141.4390  141.6107  171.5439 C.3     1  UNL1        0.0725
      8 C         140.8006  141.0978  170.2872 C.3     1  UNL1        0.0614
      9 O         140.1621  140.5848  169.0305 O.3     1  UNL1       -0.4785
     10 C         139.5237  140.0719  167.7738 C.ar    1  UNL1        0.1386
     11 C         138.3628  139.1253  167.8547 C.ar    1  UNL1        0.0369
     12 C         137.7244  138.6124  166.5980 C.ar    1  UNL1        0.0031
     13 C         138.2467  139.0460  165.2604 C.ar    1  UNL1        0.0002
     14 C         139.4075  139.9925  165.1795 C.ar    1  UNL1        0.0030
     15 C         140.0460  140.5055  166.4362 C.ar    1  UNL1        0.0338
     16 H         142.3244  143.4042  171.9601 H       1  UNL1        0.1233
     17 C         142.7740  142.7528  162.3426 C.ar    1  UNL1        0.0534
     18 C         141.6203  143.4789  162.9685 C.ar    1  UNL1        0.0045
     19 C         141.0980  143.0453  164.3061 C.ar    1  UNL1        0.0001
     20 C         141.7292  141.8856  165.0177 C.ar    1  UNL1       -0.0001
     21 C         142.8829  141.1594  164.3918 C.ar    1  UNL1        0.0001
     22 C         143.4053  141.5930  163.0543 C.ar    1  UNL1        0.0045
     23 N         144.4377  142.4484  160.3704 N.am    1  UNL1       -0.3009
     24 C         143.2964  143.1864  161.0050 C.2     1  UNL1        0.2458
     25 O         142.6774  144.3580  160.3020 O.2     1  UNL1       -0.2701
     26 H         144.8439  141.6794  160.8318 H       1  UNL1        0.1497
     27 C         144.2595  142.4508  157.7784 C.3     1  UNL1        0.0230
     28 C         144.9600  142.8820  159.0328 C.3     1  UNL1        0.0898
@<TRIPOS>BOND
     1    27    28    1
     2    28    23    1
     3    23    24   am
     4    24    25    2
     5    24    17    1
     6    17    18   ar
     7    18    19   ar
     8    19    20   ar
     9    20     1    1
    10     1     2    2
    11     2     3    1
    12     3     4    1
    13     4     5    1
    14     5     6    1
    15     6     7    1
    16     7     8    1
    17     3     9    1
    18     9    10    1
    19    10    11   ar
    20    11    12   ar
    21    12    13   ar
    22    13    14   ar
    23    14    15   ar
    24    20    21   ar
    25    21    22   ar
    26    22    17   ar
    27    15     1    1
    28     8     3    1
    29    15    10   ar
    30    23    26    1
    31     6    16    1
@<TRIPOS>MOLECULE
*****
 28 31 0 0 0
SMALL
GASTEIGER

@<TRIPOS>ATOM
      1 C         141.2891  141.2866  164.6459 C.2     1  UNL1        0.0020
      2 C         140.1477  140.6887  163.8779 C.2     1  UNL1        0.0130
      3 C         139.7100  141.3061  162.5828 C.3     1  UNL1        0.1542
      4 C         139.0063  140.0908  163.1099 C.3     1  UNL1        0.0614
      5 C         137.8650  139.4929  162.3419 C.3     1  UNL1        0.0725
      6 N         137.4273  140.1104  161.0468 N.3     1  UNL1       -0.2972
      7 C         138.1309  141.3257  160.5198 C.3     1  UNL1        0.0725
      8 C         139.2723  141.9236  161.2878 C.3     1  UNL1        0.0614
      9 O         140.4137  142.5215  162.0558 O.3     1  UNL1       -0.4785
     10 C         141.5550  143.1194  162.8238 C.ar    1  UNL1        0.1386
     11 C         142.2587  144.3348  162.2967 C.ar    1  UNL1        0.0369
     12 C         143.4000  144.9326  163.0647 C.ar    1  UNL1        0.0031
     13 C         143.8377  144.3152  164.3598 C.ar    1  UNL1        0.0002
     14 C         143.1341  143.0998  164.8868 C.ar    1  UNL1        0.0030
     15 C         141.9927  142.5019  164.1188 C.ar    1  UNL1        0.0338
     16 H         136.4456  140.3637  161.1584 H       1  UNL1        0.1233
     17 C         142.6022  139.4342  168.5310 C.ar    1  UNL1        0.0534
     18 C         141.6387  140.5838  168.5361 C.ar    1  UNL1        0.0045
     19 C         141.2010  141.2013  167.2411 C.ar    1  UNL1        0.0001
     20 C         141.7268  140.6691  165.9409 C.ar    1  UNL1       -0.0001
     21 C         142.6903  139.5195  165.9358 C.ar    1  UNL1        0.0001
     22 C         143.1280  138.9020  167.2309 C.ar    1  UNL1        0.0045
     23 N         143.4865  137.3853  169.8613 N.am    1  UNL1       -0.3009
     24 C         143.0399  138.8167  169.8261 C.2     1  UNL1        0.2458
     25 O         143.0309  139.6309  171.0860 O.2     1  UNL1       -0.2701
     26 H         143.4924  136.8510  169.0344 H       1  UNL1        0.1497
     27 C         144.9198  135.6457  171.1536 C.3     1  UNL1        0.0230
     28 C         143.9242  136.7678  171.1564 C.3     1  UNL1        0.0898
@<TRIPOS>BOND
     1    27    28    1
     2    28    23    1
     3    23    24   am
     4    24    25    2
     5    24    17    1
     6    17    18   ar
     7    18    19   ar
     8    19    20   ar
     9    20     1    1
    10     1     2    2
    11     2     3    1
    12     3     4    1
    13     4     5    1
    14     5     6    1
    15     6     7    1
    16     7     8    1
    17     3     9    1
    18     9    10    1
    19    10    11   ar
    20    11    12   ar
    21    12    13   ar
    22    13    14   ar
    23    14    15   ar
    24    20    21   ar
    25    21    22   ar
    26    22    17   ar
    27    15     1    1
    28     8     3    1
    29    15    10   ar
    30    23    26    1
    31     6    16    1
@<TRIPOS>MOLECULE
*****
 28 31 0 0 0
SMALL
GASTEIGER

@<TRIPOS>ATOM
      1 C         140.3643  142.4906  161.3930 C.2     1  UNL1        0.0020
      2 C         141.8343  142.1919  161.3948 C.2     1  UNL1        0.0130
      3 C         142.6719  142.5545  162.5852 C.3     1  UNL1        0.1542
      4 C         143.3043  141.8933  161.3965 C.3     1  UNL1        0.0614
      5 C         144.7742  141.5947  161.3983 C.3     1  UNL1        0.0725
      6 N         145.6118  141.9573  162.5887 N.3     1  UNL1       -0.2972
      7 C         144.9794  142.6185  163.7773 C.3     1  UNL1        0.0725
      8 C         143.5094  142.9171  163.7756 C.3     1  UNL1        0.0614
      9 O         142.0394  143.2157  163.7738 O.3     1  UNL1       -0.4785
     10 C         140.5695  143.5144  163.7720 C.ar    1  UNL1        0.1386
     11 C         139.9370  144.1756  164.9607 C.ar    1  UNL1        0.0369
     12 C         138.4671  144.4742  164.9589 C.ar    1  UNL1        0.0031
     13 C         137.6295  144.1117  163.7685 C.ar    1  UNL1        0.0002
     14 C         138.2619  143.4505  162.5799 C.ar    1  UNL1        0.0030
     15 C         139.7319  143.1518  162.5816 C.ar    1  UNL1        0.0338
     16 H         146.3411  142.5873  162.2547 H       1  UNL1        0.1233
     17 C         137.8517  141.4029  157.8218 C.ar    1  UNL1        0.0534
     18 C         138.4986  142.7539  157.9002 C.ar    1  UNL1        0.0045
     19 C         139.3361  143.1165  159.0906 C.ar    1  UNL1        0.0001
     20 C         139.5268  142.1280  160.2026 C.ar    1  UNL1       -0.0001
     21 C         138.8798  140.7769  160.1242 C.ar    1  UNL1        0.0001
     22 C         138.0423  140.4143  158.9338 C.ar    1  UNL1        0.0045
     23 N         135.9678  141.9923  156.1326 N.am    1  UNL1       -0.3009
     24 C         137.0141  141.0403  156.6314 C.2     1  UNL1        0.2458
     25 O         137.2230  139.7256  155.9398 O.2     1  UNL1       -0.2701
     26 H         135.8307  142.8551  156.5865 H       1  UNL1        0.1497
     27 C         133.8875  140.8089  155.1215 C.3     1  UNL1        0.0230
     28 C         135.1302  141.6297  154.9422 C.3     1  UNL1        0.0898
@<TRIPOS>BOND
     1    27    28    1
     2    28    23    1
     3    23    24   am
     4    24    25    2
     5    24    17    1
     6    17    18   ar
     7    18    19   ar
     8    19    20   ar
     9    20     1    1
    10     1     2    2
    11     2     3    1
    12     3     4    1
    13     4     5    1
    14     5     6    1
    15     6     7    1
    16     7     8    1
    17     3     9    1
    18     9    10    1
    19    10    11   ar
    20    11    12   ar
    21    12    13   ar
    22    13    14   ar
    23    14    15   ar
    24    20    21   ar
    25    21    22   ar
    26    22    17   ar
    27    15     1    1
    28     8     3    1
    29    15    10   ar
    30    23    26    1
    31     6    16    1
@<TRIPOS>MOLECULE
*****
 28 31 0 0 0
SMALL
GASTEIGER

@<TRIPOS>ATOM
      1 C         141.5647  139.9359  163.5548 C.2     1  UNL1        0.0020
      2 C         140.4610  139.4117  164.4250 C.2     1  UNL1        0.0130
      3 C         140.3209  139.9021  165.8356 C.3     1  UNL1        0.1542
      4 C         139.3574  138.8875  165.2951 C.3     1  UNL1        0.0614
      5 C         138.2538  138.3633  166.1652 C.3     1  UNL1        0.0725
      6 N         138.1136  138.8537  167.5758 N.3     1  UNL1       -0.2972
      7 C         139.0770  139.8684  168.1163 C.3     1  UNL1        0.0725
      8 C         140.1807  140.3926  167.2462 C.3     1  UNL1        0.0614
      9 O         141.2844  140.9169  166.3761 O.3     1  UNL1       -0.4785
     10 C         142.3880  141.4411  165.5059 C.ar    1  UNL1        0.1386
     11 C         143.3515  142.4558  166.0464 C.ar    1  UNL1        0.0369
     12 C         144.4552  142.9800  165.1763 C.ar    1  UNL1        0.0031
     13 C         144.5953  142.4896  163.7657 C.ar    1  UNL1        0.0002
     14 C         143.6319  141.4749  163.2252 C.ar    1  UNL1        0.0030
     15 C         142.5282  140.9506  164.0953 C.ar    1  UNL1        0.0338
     16 H         138.1788  138.0346  168.1802 H       1  UNL1        0.1233
     17 C         141.9853  138.4646  159.3230 C.ar    1  UNL1        0.0534
     18 C         141.1266  139.6580  159.6203 C.ar    1  UNL1        0.0045
     19 C         140.9865  140.1485  161.0309 C.ar    1  UNL1        0.0001
     20 C         141.7049  139.4455  162.1442 C.ar    1  UNL1       -0.0001
     21 C         142.5636  138.2520  161.8470 C.ar    1  UNL1        0.0001
     22 C         142.7038  137.7615  160.4364 C.ar    1  UNL1        0.0045
     23 N         143.4382  138.1074  157.1990 N.am    1  UNL1       -0.3009
     24 C         142.1255  137.9741  157.9124 C.2     1  UNL1        0.2458
     25 O         140.9529  137.3503  157.2153 O.2     1  UNL1       -0.2701
     26 H         144.2077  138.5169  157.6566 H       1  UNL1        0.1497
     27 C         144.1140  136.2413  155.5224 C.3     1  UNL1        0.0230
     28 C         143.5783  137.6170  155.7884 C.3     1  UNL1        0.0898
@<TRIPOS>BOND
     1    27    28    1
     2    28    23    1
     3    23    24   am
     4    24    25    2
     5    24    17    1
     6    17    18   ar
     7    18    19   ar
     8    19    20   ar
     9    20     1    1
    10     1     2    2
    11     2     3    1
    12     3     4    1
    13     4     5    1
    14     5     6    1
    15     6     7    1
    16     7     8    1
    17     3     9    1
    18     9    10    1
    19    10    11   ar
    20    11    12   ar
    21    12    13   ar
    22    13    14   ar
    23    14    15   ar
    24    20    21   ar
    25    21    22   ar
    26    22    17   ar
    27    15     1    1
    28     8     3    1
    29    15    10   ar
    30    23    26    1
    31     6    16    1
