@<TRIPOS>MOLECULE
*****
 31 34 0 0 0
SMALL
GASTEIGER

@<TRIPOS>ATOM
      1 C         141.1742  142.6218  159.4337 C.2     1  UNL1        0.0596
      2 C         140.2210  141.8671  160.3122 C.2     1  UNL1        0.0324
      3 C         140.7452  140.8856  161.3182 C.2     1  UNL1        0.0889
      4 N         140.0531  140.0023  162.3136 N.2     1  UNL1       -0.2236
      5 C         141.1027  139.2297  163.0561 C.2     1  UNL1        0.1859
      6 N         142.4434  139.6355  162.5197 N.2     1  UNL1       -0.2387
      7 C         142.2225  140.6589  161.4456 C.3     1  UNL1        0.1679
      8 C         143.1756  141.4137  160.5670 C.2     1  UNL1        0.0164
      9 C         142.6514  142.3952  159.5611 C.2     1  UNL1        0.0690
     10 CL        143.6046  143.1499  158.6825 Cl      1  UNL1       -0.0812
     11 N         139.6017  145.5664  156.4158 N.3     1  UNL1       -0.2698
     12 C         140.0762  146.0465  157.7553 C.3     1  UNL1        0.0938
     13 C         140.6003  145.0650  158.7612 C.3     1  UNL1        0.1081
     14 N         140.6500  143.6034  158.4277 N.pl3   1  UNL1       -0.3040
     15 C         140.1755  143.1233  157.0881 C.3     1  UNL1        0.1081
     16 C         139.6514  144.1048  156.0822 C.3     1  UNL1        0.0938
     17 C         138.9122  147.9906  155.7852 C.3     1  UNL1        0.0188
     18 C         139.0775  146.5478  155.4098 C.3     1  UNL1        0.0722
     19 S         140.8550  138.2273  164.1442 S.3     1  UNL1       -0.0777
     20 C         139.8333  138.5093  165.2055 C.3     1  UNL1        0.0461
     21 C         138.9999  137.7110  164.2473 C.3     1  UNL1        0.0113
     22 C         141.0215  139.2097  165.7951 C.3     1  UNL1        0.0109
     23 C         140.8986  139.9150  167.1133 C.3     1  UNL1        0.0099
     24 C         139.5874  139.9198  167.8419 C.3     1  UNL1        0.0765
     25 C         138.3992  139.2194  167.2522 C.3     1  UNL1        0.0099
     26 C         138.5221  138.5142  165.9341 C.3     1  UNL1        0.0109
     27 C         139.4645  140.6250  169.1600 C.2     1  UNL1        0.2220
     28 O         138.7313  139.9724  170.2944 O.2     1  UNL1       -0.2751
     29 N         140.0747  141.9828  169.3439 N.am    1  UNL1       -0.3027
     30 C         139.9518  142.6882  170.6620 C.3     1  UNL1        0.1106
     31 H         140.5558  142.4112  168.5994 H       1  UNL1        0.1495
@<TRIPOS>BOND
     1    17    18    1
     2    18    11    1
     3    11    12    1
     4    12    13    1
     5    13    14    1
     6    14     1    1
     7     1     2    2
     8     2     3    1
     9     3     4    2
    10     4     5    1
    11     5    19    1
    12    19    20    1
    13    20    21    1
    14    20    22    1
    15    22    23    1
    16    23    24    1
    17    24    27    1
    18    27    28    2
    19    27    29   am
    20    29    30    1
    21    24    25    1
    22    25    26    1
    23     5     6    2
    24     6     7    1
    25     7     8    1
    26     8     9    2
    27     9    10    1
    28    14    15    1
    29    15    16    1
    30    16    11    1
    31     9     1    1
    32     7     3    1
    33    26    20    1
    34    29    31    1
@<TRIPOS>MOLECULE
*****
 31 34 0 0 0
SMALL
GASTEIGER

@<TRIPOS>ATOM
      1 C         139.0733  140.9947  158.6784 C.2     1  UNL1        0.0596
      2 C         138.9462  141.1477  160.1653 C.2     1  UNL1        0.0324
      3 C         139.2153  139.9782  161.0652 C.2     1  UNL1        0.0889
      4 N         139.1709  139.8287  162.5571 N.2     1  UNL1       -0.2236
      5 C         139.5397  138.4140  162.8923 C.2     1  UNL1        0.1859
      6 N         139.8120  137.6891  161.6076 N.2     1  UNL1       -0.2387
      7 C         139.6115  138.6559  160.4784 C.3     1  UNL1        0.1679
      8 C         139.7386  138.5029  158.9916 C.2     1  UNL1        0.0164
      9 C         139.4694  139.6724  158.0917 C.2     1  UNL1        0.0690
     10 CL        139.5965  139.5194  156.6049 Cl      1  UNL1       -0.0812
     11 N         138.2659  144.5031  155.9785 N.3     1  UNL1       -0.2698
     12 C         139.5561  144.4236  156.7394 C.3     1  UNL1        0.0938
     13 C         139.8252  143.2542  157.6393 C.3     1  UNL1        0.1081
     14 N         138.8041  142.1642  157.7784 N.pl3   1  UNL1       -0.3040
     15 C         137.5139  142.2437  157.0176 C.3     1  UNL1        0.1081
     16 C         137.2447  143.4132  156.1176 C.3     1  UNL1        0.0938
     17 C         138.9930  146.7897  154.9821 C.3     1  UNL1        0.0188
     18 C         137.9966  145.6725  155.0786 C.3     1  UNL1        0.0722
     19 S         139.6217  137.8270  164.2702 S.3     1  UNL1       -0.0777
     20 C         140.3535  138.5600  165.3553 C.3     1  UNL1        0.0461
     21 C         141.5056  138.1872  164.4701 C.3     1  UNL1        0.0113
     22 C         138.9472  138.6782  165.8637 C.3     1  UNL1        0.0109
     23 C         138.6727  139.3999  167.1497 C.3     1  UNL1        0.0099
     24 C         139.8047  140.0034  167.9273 C.3     1  UNL1        0.0765
     25 C         141.2109  139.8852  167.4189 C.3     1  UNL1        0.0099
     26 C         141.4853  139.1635  166.1329 C.3     1  UNL1        0.0109
     27 C         139.5303  140.7252  169.2134 C.2     1  UNL1        0.2220
     28 O         138.7302  140.0574  170.2922 O.2     1  UNL1       -0.2751
     29 N         140.0559  142.1147  169.4205 N.am    1  UNL1       -0.3027
     30 C         139.7815  142.8365  170.7065 C.3     1  UNL1        0.1106
     31 H         140.5810  142.5529  168.7124 H       1  UNL1        0.1495
@<TRIPOS>BOND
     1    17    18    1
     2    18    11    1
     3    11    12    1
     4    12    13    1
     5    13    14    1
     6    14     1    1
     7     1     2    2
     8     2     3    1
     9     3     4    2
    10     4     5    1
    11     5    19    1
    12    19    20    1
    13    20    21    1
    14    20    22    1
    15    22    23    1
    16    23    24    1
    17    24    27    1
    18    27    28    2
    19    27    29   am
    20    29    30    1
    21    24    25    1
    22    25    26    1
    23     5     6    2
    24     6     7    1
    25     7     8    1
    26     8     9    2
    27     9    10    1
    28    14    15    1
    29    15    16    1
    30    16    11    1
    31     9     1    1
    32     7     3    1
    33    26    20    1
    34    29    31    1
@<TRIPOS>MOLECULE
*****
 31 34 0 0 0
SMALL
GASTEIGER

@<TRIPOS>ATOM
      1 C         143.7690  141.0380  158.8477 C.2     1  UNL1        0.0596
      2 C         143.8780  139.8083  159.7000 C.2     1  UNL1        0.0324
      3 C         142.8005  139.4858  160.6924 C.2     1  UNL1        0.0889
      4 N         142.6353  138.3533  161.6620 N.2     1  UNL1       -0.2236
      5 C         141.3468  138.5604  162.4015 C.2     1  UNL1        0.1859
      6 N         140.7157  139.8210  161.8890 N.2     1  UNL1       -0.2387
      7 C         141.6141  140.3929  160.8327 C.3     1  UNL1        0.1679
      8 C         141.5052  141.6225  159.9805 C.2     1  UNL1        0.0164
      9 C         142.5827  141.9450  158.9880 C.2     1  UNL1        0.0690
     10 CL        142.4737  143.1746  158.1358 Cl      1  UNL1       -0.0812
     11 N         147.0015  142.0055  155.8702 N.3     1  UNL1       -0.2698
     12 C         146.0195  140.9089  155.5814 C.3     1  UNL1        0.0938
     13 C         144.9421  140.5864  156.5739 C.3     1  UNL1        0.1081
     14 N         144.8465  141.3605  157.8552 N.pl3   1  UNL1       -0.3040
     15 C         145.8284  142.4570  158.1440 C.3     1  UNL1        0.1081
     16 C         146.9059  142.7795  157.1515 C.3     1  UNL1        0.0938
     17 C         149.4426  141.7212  155.0274 C.3     1  UNL1        0.0188
     18 C         148.0789  142.3280  154.8778 C.3     1  UNL1        0.0722
     19 S         140.7876  137.6643  163.4665 S.3     1  UNL1       -0.0777
     20 C         139.8277  138.2128  164.4803 C.3     1  UNL1        0.0461
     21 C         138.8615  137.5866  163.5188 C.3     1  UNL1        0.0113
     22 C         141.1272  138.6486  165.0897 C.3     1  UNL1        0.0109
     23 C         141.1313  139.4153  166.3789 C.3     1  UNL1        0.0099
     24 C         139.8358  139.7463  167.0587 C.3     1  UNL1        0.0765
     25 C         138.5363  139.3105  166.4493 C.3     1  UNL1        0.0099
     26 C         138.5322  138.5438  165.1601 C.3     1  UNL1        0.0109
     27 C         139.8399  140.5130  168.3480 C.2     1  UNL1        0.2220
     28 O         139.3517  139.8632  169.6087 O.2     1  UNL1       -0.2751
     29 N         140.3321  141.9297  168.3765 N.am    1  UNL1       -0.3027
     30 C         140.3363  142.6965  169.6656 C.3     1  UNL1        0.1106
     31 H         140.6526  142.3562  167.5490 H       1  UNL1        0.1495
@<TRIPOS>BOND
     1    17    18    1
     2    18    11    1
     3    11    12    1
     4    12    13    1
     5    13    14    1
     6    14     1    1
     7     1     2    2
     8     2     3    1
     9     3     4    2
    10     4     5    1
    11     5    19    1
    12    19    20    1
    13    20    21    1
    14    20    22    1
    15    22    23    1
    16    23    24    1
    17    24    27    1
    18    27    28    2
    19    27    29   am
    20    29    30    1
    21    24    25    1
    22    25    26    1
    23     5     6    2
    24     6     7    1
    25     7     8    1
    26     8     9    2
    27     9    10    1
    28    14    15    1
    29    15    16    1
    30    16    11    1
    31     9     1    1
    32     7     3    1
    33    26    20    1
    34    29    31    1
@<TRIPOS>MOLECULE
*****
 31 34 0 0 0
SMALL
GASTEIGER

@<TRIPOS>ATOM
      1 C         142.3655  143.5462  158.5892 C.2     1  UNL1        0.0596
      2 C         141.8458  142.6320  159.6589 C.2     1  UNL1        0.0324
      3 C         140.7604  143.0994  160.5827 C.2     1  UNL1        0.0889
      4 N         140.0539  142.4271  161.7224 N.2     1  UNL1       -0.2236
      5 C         139.0516  143.3932  162.2809 C.2     1  UNL1        0.1859
      6 N         139.1386  144.6626  161.4864 N.2     1  UNL1       -0.2387
      7 C         140.1948  144.4810  160.4369 C.3     1  UNL1        0.1679
      8 C         140.7145  145.3951  159.3672 C.2     1  UNL1        0.0164
      9 C         141.7999  144.9277  158.4434 C.2     1  UNL1        0.0690
     10 CL        142.3196  145.8420  157.3737 Cl      1  UNL1       -0.0812
     11 N         145.6217  142.1440  155.8177 N.3     1  UNL1       -0.2698
     12 C         145.8875  142.2591  157.2894 C.3     1  UNL1        0.0938
     13 C         144.8021  142.7266  158.2132 C.3     1  UNL1        0.1081
     14 N         143.4509  143.0788  157.6653 N.pl3   1  UNL1       -0.3040
     15 C         143.1851  142.9636  156.1936 C.3     1  UNL1        0.1081
     16 C         144.2705  142.4962  155.2697 C.3     1  UNL1        0.0938
     17 C         148.1464  141.8784  155.2648 C.3     1  UNL1        0.0188
     18 C         146.7070  141.6766  154.8938 C.3     1  UNL1        0.0722
     19 S         138.1249  143.1353  163.4318 S.3     1  UNL1       -0.0777
     20 C         138.2631  141.8785  164.2390 C.3     1  UNL1        0.0461
     21 C         137.2863  141.4144  163.1996 C.3     1  UNL1        0.0113
     22 C         139.1919  142.7791  164.9981 C.3     1  UNL1        0.0109
     23 C         139.9198  142.2618  166.2034 C.3     1  UNL1        0.0099
     24 C         139.7187  140.8438  166.6495 C.3     1  UNL1        0.0765
     25 C         138.7899  139.9433  165.8904 C.3     1  UNL1        0.0099
     26 C         138.0621  140.4606  164.6851 C.3     1  UNL1        0.0109
     27 C         140.4466  140.3265  167.8548 C.2     1  UNL1        0.2220
     28 O         141.7843  139.6664  167.6971 O.2     1  UNL1       -0.2751
     29 N         139.8367  140.4692  169.2177 N.am    1  UNL1       -0.3027
     30 C         140.5644  139.9520  170.4230 C.3     1  UNL1        0.1106
     31 H         138.9587  140.9025  169.3212 H       1  UNL1        0.1495
@<TRIPOS>BOND
     1    17    18    1
     2    18    11    1
     3    11    12    1
     4    12    13    1
     5    13    14    1
     6    14     1    1
     7     1     2    2
     8     2     3    1
     9     3     4    2
    10     4     5    1
    11     5    19    1
    12    19    20    1
    13    20    21    1
    14    20    22    1
    15    22    23    1
    16    23    24    1
    17    24    27    1
    18    27    28    2
    19    27    29   am
    20    29    30    1
    21    24    25    1
    22    25    26    1
    23     5     6    2
    24     6     7    1
    25     7     8    1
    26     8     9    2
    27     9    10    1
    28    14    15    1
    29    15    16    1
    30    16    11    1
    31     9     1    1
    32     7     3    1
    33    26    20    1
    34    29    31    1
@<TRIPOS>MOLECULE
*****
 31 34 0 0 0
SMALL
GASTEIGER

@<TRIPOS>ATOM
      1 C         140.0396  143.0941  164.1379 C.2     1  UNL1        0.0596
      2 C         140.7263  142.6116  162.8946 C.2     1  UNL1        0.0324
      3 C         140.6029  143.3912  161.6191 C.2     1  UNL1        0.0889
      4 N         141.1626  143.1644  160.2460 N.2     1  UNL1       -0.2236
      5 C         140.6984  144.2863  159.3652 C.2     1  UNL1        0.1859
      6 N         139.8519  145.2065  160.1938 N.2     1  UNL1       -0.2387
      7 C         139.7929  144.6533  161.5869 C.3     1  UNL1        0.1679
      8 C         139.1062  145.1357  162.8301 C.2     1  UNL1        0.0164
      9 C         139.2296  144.3560  164.1056 C.2     1  UNL1        0.0690
     10 CL        138.5428  144.8385  165.3489 Cl      1  UNL1       -0.0812
     11 N         140.4097  140.7551  167.9644 N.3     1  UNL1       -0.2698
     12 C         139.4099  140.3407  166.9259 C.3     1  UNL1        0.0938
     13 C         139.2865  141.1203  165.6504 C.3     1  UNL1        0.1081
     14 N         140.1630  142.3144  165.4135 N.pl3   1  UNL1       -0.3040
     15 C         141.1628  142.7288  166.4520 C.3     1  UNL1        0.1081
     16 C         141.2861  141.9491  167.7275 C.3     1  UNL1        0.0938
     17 C         141.8770  139.4873  169.6936 C.3     1  UNL1        0.0188
     18 C         140.5331  139.9755  169.2399 C.3     1  UNL1        0.0722
     19 S         141.0236  144.4579  157.9109 S.3     1  UNL1       -0.0777
     20 C         139.9343  144.7816  156.9319 C.3     1  UNL1        0.0461
     21 C         140.6726  146.0872  156.9410 C.3     1  UNL1        0.0113
     22 C         139.5742  143.3635  157.2628 C.3     1  UNL1        0.0109
     23 C         138.3813  142.7225  156.6179 C.3     1  UNL1        0.0099
     24 C         137.5483  143.4996  155.6419 C.3     1  UNL1        0.0765
     25 C         137.9084  144.9176  155.3111 C.3     1  UNL1        0.0099
     26 C         139.1013  145.5586  155.9560 C.3     1  UNL1        0.0109
     27 C         136.3553  142.8586  154.9970 C.2     1  UNL1        0.2220
     28 O         136.0348  143.1458  153.5600 O.2     1  UNL1       -0.2751
     29 N         135.4830  141.9304  155.7890 N.am    1  UNL1       -0.3027
     30 C         134.2900  141.2893  155.1441 C.3     1  UNL1        0.1106
     31 H         135.6934  141.7419  156.7321 H       1  UNL1        0.1495
@<TRIPOS>BOND
     1    17    18    1
     2    18    11    1
     3    11    12    1
     4    12    13    1
     5    13    14    1
     6    14     1    1
     7     1     2    2
     8     2     3    1
     9     3     4    2
    10     4     5    1
    11     5    19    1
    12    19    20    1
    13    20    21    1
    14    20    22    1
    15    22    23    1
    16    23    24    1
    17    24    27    1
    18    27    28    2
    19    27    29   am
    20    29    30    1
    21    24    25    1
    22    25    26    1
    23     5     6    2
    24     6     7    1
    25     7     8    1
    26     8     9    2
    27     9    10    1
    28    14    15    1
    29    15    16    1
    30    16    11    1
    31     9     1    1
    32     7     3    1
    33    26    20    1
    34    29    31    1
@<TRIPOS>MOLECULE
*****
 31 34 0 0 0
SMALL
GASTEIGER

@<TRIPOS>ATOM
      1 C         142.3150  140.1596  163.5343 C.2     1  UNL1        0.0596
      2 C         141.4743  140.3080  162.3009 C.2     1  UNL1        0.0324
      3 C         142.0397  139.9450  160.9598 C.2     1  UNL1        0.0889
      4 N         141.4540  139.9851  159.5795 N.2     1  UNL1       -0.2236
      5 C         142.4981  139.4986  158.6187 C.2     1  UNL1        0.1859
      6 N         143.7290  139.1576  159.4052 N.2     1  UNL1       -0.2387
      7 C         143.4457  139.4335  160.8521 C.3     1  UNL1        0.1679
      8 C         144.2863  139.2852  162.0855 C.2     1  UNL1        0.0164
      9 C         143.7209  139.6482  163.4266 C.2     1  UNL1        0.0690
     10 CL        144.5617  139.4998  164.6600 Cl      1  UNL1       -0.0812
     11 N         140.6189  141.2488  167.5577 N.3     1  UNL1       -0.2698
     12 C         141.4636  142.2357  166.8077 C.3     1  UNL1        0.0938
     13 C         142.0290  141.8727  165.4667 C.3     1  UNL1        0.1081
     14 N         141.7496  140.5227  164.8755 N.pl3   1  UNL1       -0.3040
     15 C         140.9049  139.5357  165.6254 C.3     1  UNL1        0.1081
     16 C         140.3396  139.8988  166.9665 C.3     1  UNL1        0.0938
     17 C         139.4044  140.5599  169.7486 C.3     1  UNL1        0.0188
     18 C         140.0535  141.6117  168.8988 C.3     1  UNL1        0.0722
     19 S         142.3391  139.3746  157.1323 S.3     1  UNL1       -0.0777
     20 C         143.2030  138.4199  156.3626 C.3     1  UNL1        0.0461
     21 C         143.8023  139.7237  155.9256 C.3     1  UNL1        0.0113
     22 C         142.3037  137.4477  157.0670 C.3     1  UNL1        0.0109
     23 C         142.4763  135.9735  156.8500 C.3     1  UNL1        0.0099
     24 C         143.5483  135.4716  155.9285 C.3     1  UNL1        0.0765
     25 C         144.4475  136.4438  155.2242 C.3     1  UNL1        0.0099
     26 C         144.2749  137.9180  155.4412 C.3     1  UNL1        0.0109
     27 C         143.7209  133.9974  155.7115 C.2     1  UNL1        0.2220
     28 O         142.8960  133.2898  154.6776 O.2     1  UNL1       -0.2751
     29 N         144.7184  133.2309  156.5284 N.am    1  UNL1       -0.3027
     30 C         144.8911  131.7567  156.3114 C.3     1  UNL1        0.1106
     31 H         145.2598  133.6953  157.2069 H       1  UNL1        0.1495
@<TRIPOS>BOND
     1    17    18    1
     2    18    11    1
     3    11    12    1
     4    12    13    1
     5    13    14    1
     6    14     1    1
     7     1     2    2
     8     2     3    1
     9     3     4    2
    10     4     5    1
    11     5    19    1
    12    19    20    1
    13    20    21    1
    14    20    22    1
    15    22    23    1
    16    23    24    1
    17    24    27    1
    18    27    28    2
    19    27    29   am
    20    29    30    1
    21    24    25    1
    22    25    26    1
    23     5     6    2
    24     6     7    1
    25     7     8    1
    26     8     9    2
    27     9    10    1
    28    14    15    1
    29    15    16    1
    30    16    11    1
    31     9     1    1
    32     7     3    1
    33    26    20    1
    34    29    31    1
@<TRIPOS>MOLECULE
*****
 31 34 0 0 0
SMALL
GASTEIGER

@<TRIPOS>ATOM
      1 C         140.4594  139.3368  161.6285 C.2     1  UNL1        0.0596
      2 C         141.7679  138.8781  161.0561 C.2     1  UNL1        0.0324
      3 C         141.8479  138.4418  159.6232 C.2     1  UNL1        0.0889
      4 N         142.9899  137.9434  158.7881 N.2     1  UNL1       -0.2236
      5 C         142.4672  137.6578  157.4114 C.2     1  UNL1        0.1859
      6 N         141.0022  137.9797  157.3957 N.2     1  UNL1       -0.2387
      7 C         140.6194  138.4642  158.7627 C.3     1  UNL1        0.1679
      8 C         139.3111  138.9229  159.3351 C.2     1  UNL1        0.0164
      9 C         139.2311  139.3592  160.7680 C.2     1  UNL1        0.0690
     10 CL        137.9226  139.8180  161.3404 Cl      1  UNL1       -0.0812
     11 N         140.2195  140.6457  165.9273 N.3     1  UNL1       -0.2698
     12 C         139.9193  139.2230  165.5586 C.3     1  UNL1        0.0938
     13 C         139.9993  138.7868  164.1257 C.3     1  UNL1        0.1081
     14 N         140.3795  139.7731  163.0615 N.pl3   1  UNL1       -0.3040
     15 C         140.6796  141.1958  163.4302 C.3     1  UNL1        0.1081
     16 C         140.5997  141.6321  164.8631 C.3     1  UNL1        0.0938
     17 C         139.6925  140.1140  168.4152 C.3     1  UNL1        0.0188
     18 C         140.1395  141.0820  167.3602 C.3     1  UNL1        0.0722
     19 S         143.2688  137.1411  156.2536 S.3     1  UNL1       -0.0777
     20 C         142.9045  135.8348  155.6127 C.3     1  UNL1        0.0461
     21 C         142.5991  136.7732  154.4831 C.3     1  UNL1        0.0113
     22 C         143.3363  135.3500  156.9650 C.3     1  UNL1        0.0109
     23 C         143.2978  133.8848  157.2841 C.3     1  UNL1        0.0099
     24 C         142.8275  132.9044  156.2508 C.3     1  UNL1        0.0765
     25 C         142.3956  133.3891  154.8987 C.3     1  UNL1        0.0099
     26 C         142.4341  134.8543  154.5796 C.3     1  UNL1        0.0109
     27 C         142.7890  131.4392  156.5699 C.2     1  UNL1        0.2220
     28 O         142.0428  130.4957  155.6737 O.2     1  UNL1       -0.2751
     29 N         143.4967  130.9175  157.7852 N.am    1  UNL1       -0.3027
     30 C         143.4583  129.4524  158.1044 C.3     1  UNL1        0.1106
     31 H         143.9864  131.5367  158.3734 H       1  UNL1        0.1495
@<TRIPOS>BOND
     1    17    18    1
     2    18    11    1
     3    11    12    1
     4    12    13    1
     5    13    14    1
     6    14     1    1
     7     1     2    2
     8     2     3    1
     9     3     4    2
    10     4     5    1
    11     5    19    1
    12    19    20    1
    13    20    21    1
    14    20    22    1
    15    22    23    1
    16    23    24    1
    17    24    27    1
    18    27    28    2
    19    27    29   am
    20    29    30    1
    21    24    25    1
    22    25    26    1
    23     5     6    2
    24     6     7    1
    25     7     8    1
    26     8     9    2
    27     9    10    1
    28    14    15    1
    29    15    16    1
    30    16    11    1
    31     9     1    1
    32     7     3    1
    33    26    20    1
    34    29    31    1
@<TRIPOS>MOLECULE
*****
 31 34 0 0 0
SMALL
GASTEIGER

@<TRIPOS>ATOM
      1 C         140.8946  139.2922  163.7467 C.2     1  UNL1        0.0596
      2 C         141.6965  139.7182  162.5527 C.2     1  UNL1        0.0324
      3 C         141.2829  139.2839  161.1779 C.2     1  UNL1        0.0889
      4 N         141.8717  139.5452  159.8232 N.2     1  UNL1       -0.2236
      5 C         141.0201  138.8464  158.8051 C.2     1  UNL1        0.1859
      6 N         139.9051  138.1533  159.5305 N.2     1  UNL1       -0.2387
      7 C         140.0675  138.4237  160.9970 C.3     1  UNL1        0.1679
      8 C         139.2656  137.9977  162.1910 C.2     1  UNL1        0.0164
      9 C         139.6792  138.4320  163.5658 C.2     1  UNL1        0.0690
     10 CL        138.8773  138.0060  164.7598 Cl      1  UNL1       -0.0812
     11 N         142.1354  140.5950  167.8715 N.3     1  UNL1       -0.2698
     12 C         142.7013  139.3381  167.2800 C.3     1  UNL1        0.0938
     13 C         142.2877  138.9038  165.9052 C.3     1  UNL1        0.1081
     14 N         141.3082  139.7265  165.1217 N.pl3   1  UNL1       -0.3040
     15 C         140.7423  140.9835  165.7131 C.3     1  UNL1        0.1081
     16 C         141.1559  141.4177  167.0880 C.3     1  UNL1        0.0938
     17 C         143.5498  142.1339  169.4146 C.3     1  UNL1        0.0188
     18 C         142.5490  141.0294  169.2463 C.3     1  UNL1        0.0722
     19 S         141.2443  138.8416  157.3220 S.3     1  UNL1       -0.0777
     20 C         141.0676  137.5733  156.5409 C.3     1  UNL1        0.0461
     21 C         139.8641  138.3368  156.0734 C.3     1  UNL1        0.0113
     22 C         142.3325  137.2502  157.2796 C.3     1  UNL1        0.0109
     23 C         143.0027  135.9239  157.0750 C.3     1  UNL1        0.0099
     24 C         142.4080  134.9208  156.1315 C.3     1  UNL1        0.0765
     25 C         141.1432  135.2439  155.3927 C.3     1  UNL1        0.0099
     26 C         140.4730  136.5701  155.5974 C.3     1  UNL1        0.0109
     27 C         143.0783  133.5945  155.9268 C.2     1  UNL1        0.2220
     28 O         142.4544  132.5699  155.0263 O.2     1  UNL1       -0.2751
     29 N         144.3724  133.2930  156.6226 N.am    1  UNL1       -0.3027
     30 C         145.0428  131.9668  156.4180 C.3     1  UNL1        0.1106
     31 H         144.7819  133.9655  157.2137 H       1  UNL1        0.1495
@<TRIPOS>BOND
     1    17    18    1
     2    18    11    1
     3    11    12    1
     4    12    13    1
     5    13    14    1
     6    14     1    1
     7     1     2    2
     8     2     3    1
     9     3     4    2
    10     4     5    1
    11     5    19    1
    12    19    20    1
    13    20    21    1
    14    20    22    1
    15    22    23    1
    16    23    24    1
    17    24    27    1
    18    27    28    2
    19    27    29   am
    20    29    30    1
    21    24    25    1
    22    25    26    1
    23     5     6    2
    24     6     7    1
    25     7     8    1
    26     8     9    2
    27     9    10    1
    28    14    15    1
    29    15    16    1
    30    16    11    1
    31     9     1    1
    32     7     3    1
    33    26    20    1
    34    29    31    1
@<TRIPOS>MOLECULE
*****
 31 34 0 0 0
SMALL
GASTEIGER

@<TRIPOS>ATOM
      1 C         142.3549  139.9871  159.9629 C.2     1  UNL1        0.0596
      2 C         143.3448  139.4777  158.9576 C.2     1  UNL1        0.0324
      3 C         142.9083  138.5071  157.9005 C.2     1  UNL1        0.0889
      4 N         143.6529  137.8369  156.7841 N.2     1  UNL1       -0.2236
      5 C         142.6867  136.9616  156.0424 C.2     1  UNL1        0.1859
      6 N         141.3449  137.0909  156.7003 N.2     1  UNL1       -0.2387
      7 C         141.4818  138.0460  157.8487 C.3     1  UNL1        0.1679
      8 C         140.4919  138.5555  158.8540 C.2     1  UNL1        0.0164
      9 C         140.9285  139.5261  159.9111 C.2     1  UNL1        0.0690
     10 CL        139.9386  140.0355  160.9163 Cl      1  UNL1       -0.0812
     11 N         143.6646  142.8988  163.1342 N.3     1  UNL1       -0.2698
     12 C         143.5647  141.4367  163.4537 C.3     1  UNL1        0.0938
     13 C         143.1281  140.4661  162.3966 C.3     1  UNL1        0.1081
     14 N         142.7915  140.9577  161.0200 N.pl3   1  UNL1       -0.3040
     15 C         142.8913  142.4199  160.7005 C.3     1  UNL1        0.1081
     16 C         143.3279  143.3904  161.7576 C.3     1  UNL1        0.0938
     17 C         143.6337  145.2939  164.1405 C.3     1  UNL1        0.0188
     18 C         144.1011  143.8694  164.1912 C.3     1  UNL1        0.0722
     19 S         143.0061  136.1071  154.8517 S.3     1  UNL1       -0.0777
     20 C         142.5433  134.6810  154.8061 C.3     1  UNL1        0.0461
     21 C         141.7000  135.2636  153.7110 C.3     1  UNL1        0.0113
     22 C         143.5474  134.5937  155.9171 C.3     1  UNL1        0.0109
     23 C         143.7959  133.2826  156.6022 C.3     1  UNL1        0.0099
     24 C         143.0401  132.0588  156.1763 C.3     1  UNL1        0.0765
     25 C         142.0361  132.1462  155.0654 C.3     1  UNL1        0.0099
     26 C         141.7877  133.4573  154.3802 C.3     1  UNL1        0.0109
     27 C         143.2886  130.7477  156.8614 C.2     1  UNL1        0.2220
     28 O         142.6017  129.5057  156.3759 O.2     1  UNL1       -0.2751
     29 N         144.2239  130.6787  158.0320 N.am    1  UNL1       -0.3027
     30 C         144.4724  129.3676  158.7172 C.3     1  UNL1        0.1106
     31 H         144.6746  131.4939  158.3507 H       1  UNL1        0.1495
@<TRIPOS>BOND
     1    17    18    1
     2    18    11    1
     3    11    12    1
     4    12    13    1
     5    13    14    1
     6    14     1    1
     7     1     2    2
     8     2     3    1
     9     3     4    2
    10     4     5    1
    11     5    19    1
    12    19    20    1
    13    20    21    1
    14    20    22    1
    15    22    23    1
    16    23    24    1
    17    24    27    1
    18    27    28    2
    19    27    29   am
    20    29    30    1
    21    24    25    1
    22    25    26    1
    23     5     6    2
    24     6     7    1
    25     7     8    1
    26     8     9    2
    27     9    10    1
    28    14    15    1
    29    15    16    1
    30    16    11    1
    31     9     1    1
    32     7     3    1
    33    26    20    1
    34    29    31    1
