@<TRIPOS>MOLECULE
*****
 35 38 0 0 0
SMALL
GASTEIGER

@<TRIPOS>ATOM
      1 N         142.9036  142.9619  164.5127 N.3     1  UNL1       -0.2750
      2 C         144.0197  143.9595  164.6090 C.3     1  UNL1        0.0611
      3 C         143.7363  145.0673  163.6381 C.3     1  UNL1        0.0175
      4 C         142.4452  144.7543  162.9418 C.3     1  UNL1        0.0175
      5 C         141.9305  143.4531  163.4822 C.3     1  UNL1        0.0611
      6 C         141.6617  142.1511  164.1974 C.3     1  UNL1        0.0595
      7 C         142.7191  141.7889  165.1978 C.3     1  UNL1        0.1686
      8 C         143.8981  142.6931  165.4036 C.3     1  UNL1        0.0595
      9 C         142.7821  141.6955  165.3073 C.3     1  UNL1        0.0720
     10 C         143.6692  140.5267  164.9960 C.3     1  UNL1        0.0173
     11 C         143.2948  138.4078  161.0437 C.3     1  UNL1        0.0730
     12 C         144.2041  139.5934  161.1759 C.3     1  UNL1        0.0196
     13 C         144.3289  140.2996  162.4934 C.3     1  UNL1        0.0017
     14 C         143.5444  139.8204  163.6786 C.3     1  UNL1        0.0015
     15 C         142.6350  138.6348  163.5464 C.3     1  UNL1        0.0017
     16 C         142.5102  137.9285  162.2290 C.3     1  UNL1        0.0196
     17 C         141.1395  138.0214  156.3315 C.3     1  UNL1        0.1165
     18 N         142.0923  137.5084  157.3702 N.am    1  UNL1       -0.2607
     19 C         142.9204  136.2891  157.0914 C.3     1  UNL1        0.1165
     20 C         142.2172  138.2145  158.6876 C.2     1  UNL1        0.3040
     21 O         141.3891  139.4338  158.9664 O.2     1  UNL1       -0.2526
     22 N         143.1700  137.7015  159.7263 N.am    1  UNL1       -0.2904
     23 H         143.7135  136.9013  159.5434 H       1  UNL1        0.1509
     24 O         142.5975  140.5224  165.9924 O.3     1  UNL1       -0.4791
     25 C         141.5744  140.4174  167.0844 C.ar    1  UNL1        0.1385
     26 C         140.1984  139.9059  166.7763 C.ar    1  UNL1        0.0369
     27 C         139.1754  139.8010  167.8681 C.ar    1  UNL1        0.0033
     28 C         139.5283  140.2075  169.2682 C.ar    1  UNL1        0.0047
     29 C         140.9043  140.7191  169.5763 C.ar    1  UNL1        0.0561
     30 C         141.9274  140.8240  168.4843 C.ar    1  UNL1        0.0414
     31 C         141.2573  141.1256  170.9763 C.2     1  UNL1        0.2428
     32 N         142.4677  140.5433  171.6439 N.am    1  UNL1       -0.3253
     33 O         140.6436  142.0607  171.9759 O.2     1  UNL1       -0.2704
     34 H         143.0306  139.8942  171.1631 H       1  UNL1        0.1453
     35 H         142.6994  140.8101  172.5628 H       1  UNL1        0.1453
@<TRIPOS>BOND
     1    17    18    1
     2    18    19    1
     3    18    20   am
     4    20    21    2
     5    20    22   am
     6    11    22    1
     7    11    12    1
     8    12    13    1
     9    13    14    1
    10    14    10    1
    11    10     9    1
    12     9     1    1
    13     1     2    1
    14     2     3    1
    15     3     4    1
    16     5     4    1
    17     5     6    1
    18     6     7    1
    19     7    24    1
    20    24    25    1
    21    25    26   ar
    22    26    27   ar
    23    27    28   ar
    24    28    29   ar
    25    29    31    1
    26    31    32   am
    27    31    33    2
    28    29    30   ar
    29     7     8    1
    30    14    15    1
    31    15    16    1
    32    16    11    1
    33     5     1    1
    34    30    25   ar
    35     8     2    1
    36    22    23    1
    37    32    34    1
    38    32    35    1
@<TRIPOS>MOLECULE
*****
 35 38 0 0 0
SMALL
GASTEIGER

@<TRIPOS>ATOM
      1 N         142.9168  143.0612  164.4934 N.3     1  UNL1       -0.2750
      2 C         141.9128  143.5069  163.4719 C.3     1  UNL1        0.0611
      3 C         142.4201  144.7711  162.8440 C.3     1  UNL1        0.0175
      4 C         143.7378  145.1068  163.4773 C.3     1  UNL1        0.0175
      5 C         144.0448  144.0501  164.4967 C.3     1  UNL1        0.0611
      6 C         144.0896  142.8682  165.4349 C.3     1  UNL1        0.0595
      7 C         142.8958  141.9673  165.3194 C.3     1  UNL1        0.1686
      8 C         141.8074  142.2867  164.3379 C.3     1  UNL1        0.0595
      9 C         142.8114  141.8410  165.3594 C.3     1  UNL1        0.0720
     10 C         143.6648  140.6414  165.0720 C.3     1  UNL1        0.0173
     11 C         143.3155  138.5276  161.1148 C.3     1  UNL1        0.0730
     12 C         142.5010  138.0653  162.2864 C.3     1  UNL1        0.0196
     13 C         142.6175  138.7700  163.6055 C.3     1  UNL1        0.0017
     14 C         143.5484  139.9368  163.7530 C.3     1  UNL1        0.0015
     15 C         144.3630  140.3990  162.5812 C.3     1  UNL1        0.0017
     16 C         144.2466  139.6944  161.2622 C.3     1  UNL1        0.0196
     17 C         140.8040  137.7551  156.6320 C.3     1  UNL1        0.1165
     18 N         141.9432  137.4367  157.5543 N.am    1  UNL1       -0.2607
     19 C         142.9660  136.4137  157.1576 C.3     1  UNL1        0.1165
     20 C         142.0598  138.1413  158.8734 C.2     1  UNL1        0.3040
     21 O         141.0370  139.1643  159.2702 O.2     1  UNL1       -0.2526
     22 N         143.1991  137.8229  159.7957 N.am    1  UNL1       -0.2904
     23 H         143.8704  137.1515  159.5353 H       1  UNL1        0.1509
     24 O         142.7904  140.7471  166.1855 O.3     1  UNL1       -0.4791
     25 C         141.7492  140.6799  167.2632 C.ar    1  UNL1        0.1385
     26 C         140.4567  139.9608  167.0135 C.ar    1  UNL1        0.0369
     27 C         139.4156  139.8937  168.0912 C.ar    1  UNL1        0.0033
     28 C         139.6669  140.5456  169.4185 C.ar    1  UNL1        0.0047
     29 C         140.9594  141.2646  169.6682 C.ar    1  UNL1        0.0561
     30 C         142.0006  141.3318  168.5905 C.ar    1  UNL1        0.0414
     31 C         141.2107  141.9165  170.9955 C.2     1  UNL1        0.2428
     32 N         142.5535  142.5140  171.2954 N.am    1  UNL1       -0.3253
     33 O         140.3743  142.1438  172.2199 O.2     1  UNL1       -0.2704
     34 H         143.2699  142.4783  170.6211 H       1  UNL1        0.1453
     35 H         142.7185  142.9419  172.1666 H       1  UNL1        0.1453
@<TRIPOS>BOND
     1    17    18    1
     2    18    19    1
     3    18    20   am
     4    20    21    2
     5    20    22   am
     6    11    22    1
     7    11    12    1
     8    12    13    1
     9    13    14    1
    10    14    10    1
    11    10     9    1
    12     9     1    1
    13     1     2    1
    14     2     3    1
    15     3     4    1
    16     5     4    1
    17     5     6    1
    18     6     7    1
    19     7    24    1
    20    24    25    1
    21    25    26   ar
    22    26    27   ar
    23    27    28   ar
    24    28    29   ar
    25    29    31    1
    26    31    32   am
    27    31    33    2
    28    29    30   ar
    29     7     8    1
    30    14    15    1
    31    15    16    1
    32    16    11    1
    33     5     1    1
    34    30    25   ar
    35     8     2    1
    36    22    23    1
    37    32    34    1
    38    32    35    1
@<TRIPOS>MOLECULE
*****
 35 38 0 0 0
SMALL
GASTEIGER

@<TRIPOS>ATOM
      1 N         141.7686  142.3478  168.2751 N.3     1  UNL1       -0.2750
      2 C         143.2543  142.2048  168.1264 C.3     1  UNL1        0.0611
      3 C         143.8890  142.5767  169.4336 C.3     1  UNL1        0.0175
      4 C         142.7954  142.9495  170.3903 C.3     1  UNL1        0.0175
      5 C         141.4850  142.8081  169.6743 C.3     1  UNL1        0.0611
      6 C         140.3377  142.5807  168.7197 C.3     1  UNL1        0.0595
      7 C         140.7735  142.1228  167.3593 C.3     1  UNL1        0.1686
      8 C         142.2317  141.9349  167.0627 C.3     1  UNL1        0.0595
      9 C         140.7460  142.0779  167.2114 C.3     1  UNL1        0.0720
     10 C         139.8670  143.1883  166.7170 C.3     1  UNL1        0.0173
     11 C         140.1078  144.5054  162.4208 C.3     1  UNL1        0.0730
     12 C         141.3648  144.2508  163.1988 C.3     1  UNL1        0.0196
     13 C         141.2844  143.8117  164.6309 C.3     1  UNL1        0.0017
     14 C         139.9472  143.6273  165.2850 C.3     1  UNL1        0.0015
     15 C         138.6902  143.8819  164.5069 C.3     1  UNL1        0.0017
     16 C         138.7706  144.3209  163.0749 C.3     1  UNL1        0.0196
     17 C         139.8730  143.3880  157.3517 C.3     1  UNL1        0.1165
     18 N         140.0707  144.3856  158.4542 N.am    1  UNL1       -0.2607
     19 C         140.3488  145.8223  158.1246 C.3     1  UNL1        0.1165
     20 C         139.9904  143.9467  159.8863 C.2     1  UNL1        0.3040
     21 O         139.7124  142.5100  160.2158 O.2     1  UNL1       -0.2526
     22 N         140.1882  144.9444  160.9888 N.am    1  UNL1       -0.2904
     23 H         140.3707  145.8873  160.7725 H       1  UNL1        0.1509
     24 O         139.7508  141.8529  166.2956 O.3     1  UNL1       -0.4791
     25 C         139.3342  140.4434  165.9961 C.ar    1  UNL1        0.1385
     26 C         138.5201  139.6739  166.9936 C.ar    1  UNL1        0.0369
     27 C         138.1036  138.2644  166.6942 C.ar    1  UNL1        0.0033
     28 C         138.5011  137.6244  165.3971 C.ar    1  UNL1        0.0047
     29 C         139.3152  138.3939  164.3996 C.ar    1  UNL1        0.0561
     30 C         139.7318  139.8034  164.6991 C.ar    1  UNL1        0.0414
     31 C         139.7128  137.7538  163.1026 C.2     1  UNL1        0.2428
     32 N         138.7348  137.6897  161.9671 N.am    1  UNL1       -0.3253
     33 O         140.9665  137.0965  162.6061 O.2     1  UNL1       -0.2704
     34 H         137.8320  138.0677  162.0730 H       1  UNL1        0.1453
     35 H         138.9957  137.2696  161.1158 H       1  UNL1        0.1453
@<TRIPOS>BOND
     1    17    18    1
     2    18    19    1
     3    18    20   am
     4    20    21    2
     5    20    22   am
     6    11    22    1
     7    11    12    1
     8    12    13    1
     9    13    14    1
    10    14    10    1
    11    10     9    1
    12     9     1    1
    13     1     2    1
    14     2     3    1
    15     3     4    1
    16     5     4    1
    17     5     6    1
    18     6     7    1
    19     7    24    1
    20    24    25    1
    21    25    26   ar
    22    26    27   ar
    23    27    28   ar
    24    28    29   ar
    25    29    31    1
    26    31    32   am
    27    31    33    2
    28    29    30   ar
    29     7     8    1
    30    14    15    1
    31    15    16    1
    32    16    11    1
    33     5     1    1
    34    30    25   ar
    35     8     2    1
    36    22    23    1
    37    32    34    1
    38    32    35    1
@<TRIPOS>MOLECULE
*****
 35 38 0 0 0
SMALL
GASTEIGER

@<TRIPOS>ATOM
      1 N         143.3435  141.8249  164.3679 N.3     1  UNL1       -0.2750
      2 C         143.5072  140.6270  163.4801 C.3     1  UNL1        0.0611
      3 C         144.9141  140.6243  162.9599 C.3     1  UNL1        0.0175
      4 C         145.6200  141.8206  163.5263 C.3     1  UNL1        0.0175
      5 C         144.6493  142.5626  164.3965 C.3     1  UNL1        0.0611
      6 C         143.4798  143.0904  165.1920 C.3     1  UNL1        0.0595
      7 C         142.2435  142.2501  165.0670 C.3     1  UNL1        0.1686
      8 C         142.2573  141.0184  164.2110 C.3     1  UNL1        0.0595
      9 C         142.0935  142.2163  165.0989 C.3     1  UNL1        0.0720
     10 C         141.2614  143.3611  164.6019 C.3     1  UNL1        0.0173
     11 C         139.2301  143.0930  160.5954 C.3     1  UNL1        0.0730
     12 C         140.6338  143.6130  160.6913 C.3     1  UNL1        0.0196
     13 C         141.3109  143.7023  162.0268 C.3     1  UNL1        0.0017
     14 C         140.5843  143.2717  163.2664 C.3     1  UNL1        0.0015
     15 C         139.1805  142.7518  163.1705 C.3     1  UNL1        0.0017
     16 C         138.5034  142.6624  161.8349 C.3     1  UNL1        0.0196
     17 C         138.1236  140.4165  156.2812 C.3     1  UNL1        0.1165
     18 N         137.9998  141.6653  157.1028 N.am    1  UNL1       -0.2607
     19 C         137.1990  142.8249  156.5888 C.3     1  UNL1        0.1165
     20 C         138.6768  141.7548  158.4383 C.2     1  UNL1        0.3040
     21 O         139.4777  140.5953  158.9523 O.2     1  UNL1       -0.2526
     22 N         138.5531  143.0037  159.2598 N.am    1  UNL1       -0.2904
     23 H         138.0275  143.7648  158.9225 H       1  UNL1        0.1509
     24 O         140.9935  142.6417  165.7980 O.3     1  UNL1       -0.4791
     25 C         140.5825  141.8965  167.0333 C.ar    1  UNL1        0.1385
     26 C         139.7413  140.6600  166.9183 C.ar    1  UNL1        0.0369
     27 C         139.3304  139.9149  168.1535 C.ar    1  UNL1        0.0033
     28 C         139.7606  140.4064  169.5038 C.ar    1  UNL1        0.0047
     29 C         140.6018  141.6429  169.6188 C.ar    1  UNL1        0.0561
     30 C         141.0128  142.3880  168.3835 C.ar    1  UNL1        0.0414
     31 C         141.0320  142.1344  170.9691 C.2     1  UNL1        0.2428
     32 N         142.4250  142.6533  171.1696 N.am    1  UNL1       -0.3253
     33 O         140.3525  142.2488  172.3016 O.2     1  UNL1       -0.2704
     34 H         143.0570  142.6714  170.4149 H       1  UNL1        0.1453
     35 H         142.7074  142.9759  172.0559 H       1  UNL1        0.1453
@<TRIPOS>BOND
     1    17    18    1
     2    18    19    1
     3    18    20   am
     4    20    21    2
     5    20    22   am
     6    11    22    1
     7    11    12    1
     8    12    13    1
     9    13    14    1
    10    14    10    1
    11    10     9    1
    12     9     1    1
    13     1     2    1
    14     2     3    1
    15     3     4    1
    16     5     4    1
    17     5     6    1
    18     6     7    1
    19     7    24    1
    20    24    25    1
    21    25    26   ar
    22    26    27   ar
    23    27    28   ar
    24    28    29   ar
    25    29    31    1
    26    31    32   am
    27    31    33    2
    28    29    30   ar
    29     7     8    1
    30    14    15    1
    31    15    16    1
    32    16    11    1
    33     5     1    1
    34    30    25   ar
    35     8     2    1
    36    22    23    1
    37    32    34    1
    38    32    35    1
@<TRIPOS>MOLECULE
*****
 35 38 0 0 0
SMALL
GASTEIGER

@<TRIPOS>ATOM
      1 N         143.6268  141.8501  164.7051 N.3     1  UNL1       -0.2750
      2 C         144.7288  142.6676  164.0991 C.3     1  UNL1        0.0611
      3 C         145.4870  141.7906  163.1473 C.3     1  UNL1        0.0175
      4 C         144.8535  140.4310  163.1650 C.3     1  UNL1        0.0175
      5 C         143.7038  140.4678  164.1278 C.3     1  UNL1        0.0611
      6 C         142.6286  140.7932  165.1363 C.3     1  UNL1        0.0595
      7 C         142.6757  142.2109  165.6243 C.3     1  UNL1        0.1686
      8 C         143.7258  143.1481  165.1057 C.3     1  UNL1        0.0595
      9 C         142.6238  142.3306  165.7116 C.3     1  UNL1        0.0720
     10 C         141.2134  142.6159  165.2878 C.3     1  UNL1        0.0173
     11 C         140.4128  144.6239  161.3411 C.3     1  UNL1        0.0730
     12 C         140.6929  145.4514  162.5604 C.3     1  UNL1        0.0196
     13 C         140.9598  144.7820  163.8759 C.3     1  UNL1        0.0017
     14 C         140.9465  143.2852  163.9723 C.3     1  UNL1        0.0015
     15 C         140.6664  142.4577  162.7529 C.3     1  UNL1        0.0017
     16 C         140.3995  143.1270  161.4373 C.3     1  UNL1        0.0196
     17 C         141.9324  145.8496  156.5256 C.3     1  UNL1        0.1165
     18 N         140.9058  145.9061  157.6178 N.am    1  UNL1       -0.2607
     19 C         139.6122  146.6320  157.3944 C.3     1  UNL1        0.1165
     20 C         141.1725  145.2368  158.9334 C.2     1  UNL1        0.3040
     21 O         142.4660  144.5109  159.1568 O.2     1  UNL1       -0.2526
     22 N         140.1459  145.2933  160.0255 N.am    1  UNL1       -0.2904
     23 H         139.2969  145.7697  159.8789 H       1  UNL1        0.1509
     24 O         141.6726  142.6913  166.6309 O.3     1  UNL1       -0.4791
     25 C         141.7074  142.1641  168.0348 C.ar    1  UNL1        0.1385
     26 C         142.9015  142.4246  168.9043 C.ar    1  UNL1        0.0369
     27 C         142.9363  141.8975  170.3081 C.ar    1  UNL1        0.0033
     28 C         141.7770  141.1099  170.8425 C.ar    1  UNL1        0.0047
     29 C         140.5828  140.8494  169.9729 C.ar    1  UNL1        0.0561
     30 C         140.5480  141.3766  168.5690 C.ar    1  UNL1        0.0414
     31 C         139.4234  140.0618  170.5073 C.2     1  UNL1        0.2428
     32 N         139.6274  139.1040  171.6434 N.am    1  UNL1       -0.3253
     33 O         137.9670  139.9832  170.1566 O.2     1  UNL1       -0.2704
     34 H         140.5222  138.9922  172.0385 H       1  UNL1        0.1453
     35 H         138.8665  138.5870  171.9941 H       1  UNL1        0.1453
@<TRIPOS>BOND
     1    17    18    1
     2    18    19    1
     3    18    20   am
     4    20    21    2
     5    20    22   am
     6    11    22    1
     7    11    12    1
     8    12    13    1
     9    13    14    1
    10    14    10    1
    11    10     9    1
    12     9     1    1
    13     1     2    1
    14     2     3    1
    15     3     4    1
    16     5     4    1
    17     5     6    1
    18     6     7    1
    19     7    24    1
    20    24    25    1
    21    25    26   ar
    22    26    27   ar
    23    27    28   ar
    24    28    29   ar
    25    29    31    1
    26    31    32   am
    27    31    33    2
    28    29    30   ar
    29     7     8    1
    30    14    15    1
    31    15    16    1
    32    16    11    1
    33     5     1    1
    34    30    25   ar
    35     8     2    1
    36    22    23    1
    37    32    34    1
    38    32    35    1
@<TRIPOS>MOLECULE
*****
 35 38 0 0 0
SMALL
GASTEIGER

@<TRIPOS>ATOM
      1 N         140.6253  139.2316  164.9582 N.3     1  UNL1       -0.2750
      2 C         141.8995  139.1913  164.1677 C.3     1  UNL1        0.0611
      3 C         141.8814  137.9526  163.3219 C.3     1  UNL1        0.0175
      4 C         140.5959  137.2274  163.5896 C.3     1  UNL1        0.0175
      5 C         139.8197  138.0178  164.6009 C.3     1  UNL1        0.0611
      6 C         139.2746  139.0018  165.6077 C.3     1  UNL1        0.0595
      7 C         140.1885  140.1633  165.8640 C.3     1  UNL1        0.1686
      8 C         141.5010  140.2580  165.1440 C.3     1  UNL1        0.0595
      9 C         140.2268  140.2983  165.9344 C.3     1  UNL1        0.0720
     10 C         139.1741  141.3001  165.5625 C.3     1  UNL1        0.0173
     11 C         139.6154  143.7380  161.8059 C.3     1  UNL1        0.0730
     12 C         140.1060  144.2818  163.1149 C.3     1  UNL1        0.0196
     13 C         139.9589  143.4692  164.3671 C.3     1  UNL1        0.0017
     14 C         139.3212  142.1127  164.3103 C.3     1  UNL1        0.0015
     15 C         138.8305  141.5688  163.0013 C.3     1  UNL1        0.0017
     16 C         138.9777  142.3815  161.7491 C.3     1  UNL1        0.0196
     17 C         142.3010  144.9731  157.5325 C.3     1  UNL1        0.1165
     18 N         141.1054  145.1682  158.4170 N.am    1  UNL1       -0.2607
     19 C         140.0569  146.1759  158.0494 C.3     1  UNL1        0.1165
     20 C         140.9581  144.3556  159.6692 C.2     1  UNL1        0.3040
     21 O         142.0066  143.3478  160.0369 O.2     1  UNL1       -0.2526
     22 N         139.7625  144.5507  160.5538 N.am    1  UNL1       -0.2904
     23 H         139.0744  145.2121  160.3125 H       1  UNL1        0.1509
     24 O         139.7899  141.2301  166.8403 O.3     1  UNL1       -0.4791
     25 C         140.3589  141.2271  168.2282 C.ar    1  UNL1        0.1385
     26 C         139.7162  140.3981  169.3005 C.ar    1  UNL1        0.0369
     27 C         140.2851  140.3950  170.6883 C.ar    1  UNL1        0.0033
     28 C         141.4969  141.2209  171.0040 C.ar    1  UNL1        0.0047
     29 C         142.1396  142.0498  169.9317 C.ar    1  UNL1        0.0561
     30 C         141.5706  142.0529  168.5438 C.ar    1  UNL1        0.0414
     31 C         143.3513  142.8757  170.2474 C.2     1  UNL1        0.2428
     32 N         143.2572  143.9970  171.2393 N.am    1  UNL1       -0.3253
     33 O         144.7747  142.8611  169.7739 O.2     1  UNL1       -0.2704
     34 H         142.4001  144.1909  171.6831 H       1  UNL1        0.1453
     35 H         144.0525  144.5390  171.4465 H       1  UNL1        0.1453
@<TRIPOS>BOND
     1    17    18    1
     2    18    19    1
     3    18    20   am
     4    20    21    2
     5    20    22   am
     6    11    22    1
     7    11    12    1
     8    12    13    1
     9    13    14    1
    10    14    10    1
    11    10     9    1
    12     9     1    1
    13     1     2    1
    14     2     3    1
    15     3     4    1
    16     5     4    1
    17     5     6    1
    18     6     7    1
    19     7    24    1
    20    24    25    1
    21    25    26   ar
    22    26    27   ar
    23    27    28   ar
    24    28    29   ar
    25    29    31    1
    26    31    32   am
    27    31    33    2
    28    29    30   ar
    29     7     8    1
    30    14    15    1
    31    15    16    1
    32    16    11    1
    33     5     1    1
    34    30    25   ar
    35     8     2    1
    36    22    23    1
    37    32    34    1
    38    32    35    1
@<TRIPOS>MOLECULE
*****
 35 38 0 0 0
SMALL
GASTEIGER

@<TRIPOS>ATOM
      1 N         142.9812  143.1981  164.6429 N.3     1  UNL1       -0.2750
      2 C         144.0818  144.1845  164.3865 C.3     1  UNL1        0.0611
      3 C         143.6154  145.1332  163.3224 C.3     1  UNL1        0.0175
      4 C         142.2265  144.7331  162.9210 C.3     1  UNL1        0.0175
      5 C         141.8346  143.5371  163.7371 C.3     1  UNL1        0.0611
      6 C         141.7154  142.3640  164.6799 C.3     1  UNL1        0.0595
      7 C         142.9378  142.1468  165.5217 C.3     1  UNL1        0.1686
      8 C         144.1210  143.0570  165.3750 C.3     1  UNL1        0.0595
      9 C         143.0204  142.0706  165.6314 C.3     1  UNL1        0.0720
     10 C         143.8247  140.8398  165.3338 C.3     1  UNL1        0.0173
     11 C         143.3111  138.7128  161.4016 C.3     1  UNL1        0.0730
     12 C         144.2435  139.8832  161.5051 C.3     1  UNL1        0.0196
     13 C         144.4147  140.5922  162.8158 C.3     1  UNL1        0.0017
     14 C         143.6535  140.1308  164.0232 C.3     1  UNL1        0.0015
     15 C         142.7210  138.9604  163.9197 C.3     1  UNL1        0.0017
     16 C         142.5498  138.2514  162.6090 C.3     1  UNL1        0.0196
     17 C         140.9229  138.2592  156.8092 C.3     1  UNL1        0.1165
     18 N         141.9458  137.7771  157.7946 N.am    1  UNL1       -0.2607
     19 C         142.7975  136.5860  157.4694 C.3     1  UNL1        0.1165
     20 C         142.1170  138.4860  159.1054 C.2     1  UNL1        0.3040
     21 O         141.2653  139.6771  159.4307 O.2     1  UNL1       -0.2526
     22 N         143.1399  138.0038  160.0909 N.am    1  UNL1       -0.2904
     23 H         143.6990  137.2221  159.8774 H       1  UNL1        0.1509
     24 O         142.9769  141.0192  166.5102 O.3     1  UNL1       -0.4791
     25 C         142.4960  141.2358  167.9145 C.ar    1  UNL1        0.1385
     26 C         143.2226  142.1878  168.8176 C.ar    1  UNL1        0.0369
     27 C         142.7417  142.4045  170.2217 C.ar    1  UNL1        0.0033
     28 C         141.5342  141.6691  170.7228 C.ar    1  UNL1        0.0047
     29 C         140.8076  140.7171  169.8197 C.ar    1  UNL1        0.0561
     30 C         141.2885  140.5004  168.4155 C.ar    1  UNL1        0.0414
     31 C         139.6001  139.9817  170.3207 C.2     1  UNL1        0.2428
     32 N         139.6838  139.1735  171.5816 N.am    1  UNL1       -0.3253
     33 O         138.1901  139.8367  169.8296 O.2     1  UNL1       -0.2704
     34 H         140.5313  139.1257  172.0803 H       1  UNL1        0.1453
     35 H         138.8912  138.6908  171.9105 H       1  UNL1        0.1453
@<TRIPOS>BOND
     1    17    18    1
     2    18    19    1
     3    18    20   am
     4    20    21    2
     5    20    22   am
     6    11    22    1
     7    11    12    1
     8    12    13    1
     9    13    14    1
    10    14    10    1
    11    10     9    1
    12     9     1    1
    13     1     2    1
    14     2     3    1
    15     3     4    1
    16     5     4    1
    17     5     6    1
    18     6     7    1
    19     7    24    1
    20    24    25    1
    21    25    26   ar
    22    26    27   ar
    23    27    28   ar
    24    28    29   ar
    25    29    31    1
    26    31    32   am
    27    31    33    2
    28    29    30   ar
    29     7     8    1
    30    14    15    1
    31    15    16    1
    32    16    11    1
    33     5     1    1
    34    30    25   ar
    35     8     2    1
    36    22    23    1
    37    32    34    1
    38    32    35    1
@<TRIPOS>MOLECULE
*****
 35 38 0 0 0
SMALL
GASTEIGER

@<TRIPOS>ATOM
      1 N         139.2367  142.5699  164.3000 N.3     1  UNL1       -0.2750
      2 C         138.0601  143.4965  164.2167 C.3     1  UNL1        0.0611
      3 C         138.4556  144.6735  163.3751 C.3     1  UNL1        0.0175
      4 C         139.8767  144.4742  162.9383 C.3     1  UNL1        0.0175
      5 C         140.3594  143.1741  163.5099 C.3     1  UNL1        0.0611
      6 C         140.5673  141.8492  164.2031 C.3     1  UNL1        0.0595
      7 C         139.3595  141.3706  164.9529 C.3     1  UNL1        0.1686
      8 C         138.1059  142.1943  164.9597 C.3     1  UNL1        0.0595
      9 C         139.2825  141.2676  165.0431 C.3     1  UNL1        0.0720
     10 C         138.5210  140.0827  164.5274 C.3     1  UNL1        0.0173
     11 C         139.1322  138.6841  160.2941 C.3     1  UNL1        0.0730
     12 C         138.0950  139.7241  160.5980 C.3     1  UNL1        0.0196
     13 C         137.8913  140.1903  162.0091 C.3     1  UNL1        0.0017
     14 C         138.7247  139.6165  163.1164 C.3     1  UNL1        0.0015
     15 C         139.7620  138.5764  162.8124 C.3     1  UNL1        0.0017
     16 C         139.9658  138.1102  161.4014 C.3     1  UNL1        0.0196
     17 C         141.8054  138.8511  155.8415 C.3     1  UNL1        0.1165
     18 N         140.6726  138.3014  156.6567 N.am    1  UNL1       -0.2607
     19 C         139.7435  137.2857  156.0608 C.3     1  UNL1        0.1165
     20 C         140.4688  138.7675  158.0678 C.2     1  UNL1        0.3040
     21 O         141.3978  139.7833  158.6637 O.2     1  UNL1       -0.2526
     22 N         139.3359  138.2179  158.8831 N.am    1  UNL1       -0.2904
     23 H         138.7262  137.5512  158.4920 H       1  UNL1        0.1509
     24 O         139.4054  140.0683  165.6960 O.3     1  UNL1       -0.4791
     25 C         140.3651  139.8879  166.8346 C.ar    1  UNL1        0.1385
     26 C         141.7781  139.4634  166.5643 C.ar    1  UNL1        0.0369
     27 C         142.7378  139.2830  167.7029 C.ar    1  UNL1        0.0033
     28 C         142.2845  139.5271  169.1117 C.ar    1  UNL1        0.0047
     29 C         140.8714  139.9516  169.3820 C.ar    1  UNL1        0.0561
     30 C         139.9117  140.1320  168.2434 C.ar    1  UNL1        0.0414
     31 C         140.4181  140.1957  170.7908 C.2     1  UNL1        0.2428
     32 N         139.6669  139.1299  171.5323 N.am    1  UNL1       -0.3253
     33 O         140.5389  141.3520  171.7388 O.2     1  UNL1       -0.2704
     34 H         139.4714  138.2702  171.0943 H       1  UNL1        0.1453
     35 H         139.3694  139.2901  172.4570 H       1  UNL1        0.1453
@<TRIPOS>BOND
     1    17    18    1
     2    18    19    1
     3    18    20   am
     4    20    21    2
     5    20    22   am
     6    11    22    1
     7    11    12    1
     8    12    13    1
     9    13    14    1
    10    14    10    1
    11    10     9    1
    12     9     1    1
    13     1     2    1
    14     2     3    1
    15     3     4    1
    16     5     4    1
    17     5     6    1
    18     6     7    1
    19     7    24    1
    20    24    25    1
    21    25    26   ar
    22    26    27   ar
    23    27    28   ar
    24    28    29   ar
    25    29    31    1
    26    31    32   am
    27    31    33    2
    28    29    30   ar
    29     7     8    1
    30    14    15    1
    31    15    16    1
    32    16    11    1
    33     5     1    1
    34    30    25   ar
    35     8     2    1
    36    22    23    1
    37    32    34    1
    38    32    35    1
@<TRIPOS>MOLECULE
*****
 35 38 0 0 0
SMALL
GASTEIGER

@<TRIPOS>ATOM
      1 N         143.2723  141.7290  164.3104 N.3     1  UNL1       -0.2750
      2 C         144.6299  142.2492  164.6797 C.3     1  UNL1        0.0611
      3 C         145.6395  141.5781  163.7963 C.3     1  UNL1        0.0175
      4 C         144.9059  140.6433  162.8811 C.3     1  UNL1        0.0175
      5 C         143.4429  140.7365  163.1988 C.3     1  UNL1        0.0611
      6 C         142.0594  141.0317  163.7259 C.3     1  UNL1        0.0595
      7 C         142.0447  142.0422  164.8343 C.3     1  UNL1        0.1686
      8 C         143.3300  142.6510  165.3112 C.3     1  UNL1        0.0595
      9 C         141.9724  142.1308  164.9419 C.3     1  UNL1        0.0720
     10 C         141.4091  143.4987  164.6937 C.3     1  UNL1        0.0173
     11 C         140.3142  144.7564  160.5140 C.3     1  UNL1        0.0730
     12 C         139.2513  144.2679  161.4530 C.3     1  UNL1        0.0196
     13 C         139.6163  143.8487  162.8462 C.3     1  UNL1        0.0017
     14 C         141.0442  143.9179  163.3005 C.3     1  UNL1        0.0015
     15 C         142.1071  144.4064  162.3615 C.3     1  UNL1        0.0017
     16 C         141.7421  144.8256  160.9683 C.3     1  UNL1        0.0196
     17 C         139.7743  143.6272  155.4709 C.3     1  UNL1        0.1165
     18 N         139.6793  144.6110  156.5992 N.am    1  UNL1       -0.2607
     19 C         139.2192  146.0139  156.3344 C.3     1  UNL1        0.1165
     20 C         140.0442  144.1919  157.9925 C.2     1  UNL1        0.3040
     21 O         140.5043  142.7889  158.2573 O.2     1  UNL1       -0.2526
     22 N         139.9492  145.1756  159.1208 N.am    1  UNL1       -0.2904
     23 H         139.6472  146.0964  158.9470 H       1  UNL1        0.1509
     24 O         140.7447  142.4440  165.4658 O.3     1  UNL1       -0.4791
     25 C         140.3072  141.8075  166.7517 C.ar    1  UNL1        0.1385
     26 C         139.7606  140.4107  166.7492 C.ar    1  UNL1        0.0369
     27 C         139.3231  139.7742  168.0350 C.ar    1  UNL1        0.0033
     28 C         139.4323  140.5345  169.3234 C.ar    1  UNL1        0.0047
     29 C         139.9789  141.9313  169.3259 C.ar    1  UNL1        0.0561
     30 C         140.4164  142.5678  168.0400 C.ar    1  UNL1        0.0414
     31 C         140.0880  142.6916  170.6143 C.2     1  UNL1        0.2428
     32 N         139.8776  144.1767  170.6289 N.am    1  UNL1       -0.3253
     33 O         140.3839  142.3020  172.0324 O.2     1  UNL1       -0.2704
     34 H         139.6679  144.6525  169.7929 H       1  UNL1        0.1453
     35 H         139.9493  144.6757  171.4746 H       1  UNL1        0.1453
@<TRIPOS>BOND
     1    17    18    1
     2    18    19    1
     3    18    20   am
     4    20    21    2
     5    20    22   am
     6    11    22    1
     7    11    12    1
     8    12    13    1
     9    13    14    1
    10    14    10    1
    11    10     9    1
    12     9     1    1
    13     1     2    1
    14     2     3    1
    15     3     4    1
    16     5     4    1
    17     5     6    1
    18     6     7    1
    19     7    24    1
    20    24    25    1
    21    25    26   ar
    22    26    27   ar
    23    27    28   ar
    24    28    29   ar
    25    29    31    1
    26    31    32   am
    27    31    33    2
    28    29    30   ar
    29     7     8    1
    30    14    15    1
    31    15    16    1
    32    16    11    1
    33     5     1    1
    34    30    25   ar
    35     8     2    1
    36    22    23    1
    37    32    34    1
    38    32    35    1
