@<TRIPOS>MOLECULE
*****
 33 37 0 0 0
SMALL
GASTEIGER

@<TRIPOS>ATOM
      1 N         141.8911  144.4092  161.1429 N.ar    1  UNL1       -0.1967
      2 N         143.1599  143.9706  161.8120 N.ar    1  UNL1       -0.1666
      3 C         142.8597  143.7284  163.2616 C.ar    1  UNL1        0.0849
      4 C         141.4053  144.0174  163.4883 C.ar    1  UNL1        0.0334
      5 C         140.5487  143.9517  164.7179 C.ar    1  UNL1        0.0027
      6 C         139.0936  144.3068  164.6381 C.ar    1  UNL1        0.0001
      7 C         138.4950  144.7276  163.3286 C.ar    1  UNL1        0.0015
      8 C         139.3515  144.7932  162.0990 C.ar    1  UNL1        0.0193
      9 C         140.8067  144.4381  162.1789 C.ar    1  UNL1        0.0870
     10 C         140.8754  146.3365  153.9937 C.3     1  UNL1        0.0137
     11 C         141.0323  145.9880  155.4442 C.3     1  UNL1        0.0932
     12 C         142.1396  145.1050  154.9502 C.3     1  UNL1        0.0137
     13 C         139.8921  146.9438  155.6350 C.2     1  UNL1        0.2302
     14 O         139.1913  147.7079  154.5510 O.2     1  UNL1       -0.2744
     15 N         139.5758  147.0014  157.1001 N.am    1  UNL1       -0.2692
     16 C         140.5205  146.0812  157.8148 C.ar    1  UNL1        0.1363
     17 N         140.6773  145.7327  159.2653 N.ar    1  UNL1       -0.1951
     18 C         141.7342  144.7578  159.6923 C.ar    1  UNL1        0.2553
     19 N         142.6344  144.1314  158.6689 N.ar    1  UNL1       -0.1957
     20 C         142.4775  144.4799  157.2184 C.ar    1  UNL1        0.1276
     21 N         143.3777  143.8536  156.1950 N.pl3   1  UNL1       -0.3427
     22 C         141.4206  145.4548  156.7914 C.ar    1  UNL1        0.0484
     23 H         138.8718  147.5474  157.5191 H       1  UNL1        0.1563
     24 H         144.0714  143.2137  156.4753 H       1  UNL1        0.1437
     25 H         143.2748  144.0823  155.2430 H       1  UNL1        0.1437
     26 C         143.8414  143.2766  164.3018 C.3     1  UNL1        0.0762
     27 C         143.9351  141.8240  164.6638 C.ar    1  UNL1        0.0113
     28 C         142.9696  141.2324  165.6476 C.ar    1  UNL1       -0.0017
     29 C         143.0633  139.7798  166.0096 C.ar    1  UNL1       -0.0002
     30 C         144.1226  138.9188  165.3879 C.ar    1  UNL1        0.0023
     31 C         145.0881  139.5103  164.4042 C.ar    1  UNL1        0.0293
     32 C         144.9944  140.9629  164.0422 C.ar    1  UNL1        0.1365
     33 F         145.9600  141.5545  163.0584 F       1  UNL1       -0.2045
@<TRIPOS>BOND
     1    10    11    1
     2    11    12    1
     3    11    13    1
     4    13    14    2
     5    13    15   am
     6    15    16    1
     7    16    17   ar
     8    17    18   ar
     9    18     1    1
    10     1     2   ar
    11     2     3   ar
    12     3    26    1
    13    26    27    1
    14    27    28   ar
    15    28    29   ar
    16    29    30   ar
    17    30    31   ar
    18    31    32   ar
    19    32    33    1
    20     3     4   ar
    21     4     5   ar
    22     5     6   ar
    23     6     7   ar
    24     7     8   ar
    25     8     9   ar
    26    18    19   ar
    27    19    20   ar
    28    20    21    1
    29    20    22   ar
    30    22    11    1
    31    22    16   ar
    32     9     1   ar
    33    32    27   ar
    34     9     4   ar
    35    15    23    1
    36    21    24    1
    37    21    25    1
@<TRIPOS>MOLECULE
*****
 33 37 0 0 0
SMALL
GASTEIGER

@<TRIPOS>ATOM
      1 N         142.9445  138.7684  160.7222 N.ar    1  UNL1       -0.1967
      2 N         144.0348  139.7872  160.8746 N.ar    1  UNL1       -0.1666
      3 C         144.2366  140.0345  162.3402 C.ar    1  UNL1        0.0849
      4 C         143.2708  139.1685  163.0936 C.ar    1  UNL1        0.0334
      5 C         143.0154  138.9914  164.5611 C.ar    1  UNL1        0.0027
      6 C         141.9616  138.0319  165.0284 C.ar    1  UNL1        0.0001
      7 C         141.1630  137.2494  164.0284 C.ar    1  UNL1        0.0015
      8 C         141.4184  137.4265  162.5610 C.ar    1  UNL1        0.0193
      9 C         142.4723  138.3861  162.0936 C.ar    1  UNL1        0.0870
     10 C         140.5888  135.9088  154.2313 C.3     1  UNL1        0.0137
     11 C         141.1147  136.4502  155.5277 C.3     1  UNL1        0.0932
     12 C         139.8058  137.1815  155.5718 C.3     1  UNL1        0.0137
     13 C         142.3136  135.6057  155.2125 C.2     1  UNL1        0.2302
     14 O         142.4886  134.7408  153.9996 O.2     1  UNL1       -0.2744
     15 N         143.3068  135.7780  156.3233 N.am    1  UNL1       -0.2692
     16 C         142.7217  136.7290  157.3250 C.ar    1  UNL1        0.1363
     17 N         143.2476  137.2703  158.6212 N.ar    1  UNL1       -0.1951
     18 C         142.4186  138.2271  159.4258 C.ar    1  UNL1        0.2553
     19 N         141.0638  138.6425  158.9341 N.ar    1  UNL1       -0.1957
     20 C         140.5379  138.1012  157.6378 C.ar    1  UNL1        0.1276
     21 N         139.1831  138.5166  157.1461 N.pl3   1  UNL1       -0.3427
     22 C         141.3669  137.1444  156.8332 C.ar    1  UNL1        0.0484
     23 H         144.1881  135.3433  156.3842 H       1  UNL1        0.1563
     24 H         138.6390  139.1446  157.6742 H       1  UNL1        0.1437
     25 H         138.8379  138.1613  156.2953 H       1  UNL1        0.1437
     26 C         145.2296  140.9815  162.9461 C.3     1  UNL1        0.0762
     27 C         144.7863  142.3371  163.4107 C.ar    1  UNL1        0.0113
     28 C         144.7347  142.6475  164.8774 C.ar    1  UNL1       -0.0017
     29 C         144.2914  144.0030  165.3419 C.ar    1  UNL1       -0.0002
     30 C         143.8996  145.0482  164.3398 C.ar    1  UNL1        0.0023
     31 C         143.9512  144.7378  162.8733 C.ar    1  UNL1        0.0293
     32 C         144.3945  143.3822  162.4087 C.ar    1  UNL1        0.1365
     33 F         144.4460  143.0718  160.9421 F       1  UNL1       -0.2045
@<TRIPOS>BOND
     1    10    11    1
     2    11    12    1
     3    11    13    1
     4    13    14    2
     5    13    15   am
     6    15    16    1
     7    16    17   ar
     8    17    18   ar
     9    18     1    1
    10     1     2   ar
    11     2     3   ar
    12     3    26    1
    13    26    27    1
    14    27    28   ar
    15    28    29   ar
    16    29    30   ar
    17    30    31   ar
    18    31    32   ar
    19    32    33    1
    20     3     4   ar
    21     4     5   ar
    22     5     6   ar
    23     6     7   ar
    24     7     8   ar
    25     8     9   ar
    26    18    19   ar
    27    19    20   ar
    28    20    21    1
    29    20    22   ar
    30    22    11    1
    31    22    16   ar
    32     9     1   ar
    33    32    27   ar
    34     9     4   ar
    35    15    23    1
    36    21    24    1
    37    21    25    1
@<TRIPOS>MOLECULE
*****
 33 37 0 0 0
SMALL
GASTEIGER

@<TRIPOS>ATOM
      1 N         141.7960  144.0833  161.7814 N.ar    1  UNL1       -0.1967
      2 N         142.9900  143.6647  162.5871 N.ar    1  UNL1       -0.1666
      3 C         142.5443  143.4603  164.0046 C.ar    1  UNL1        0.0849
      4 C         141.0746  143.7526  164.0750 C.ar    1  UNL1        0.0334
      5 C         140.0978  143.7179  165.2128 C.ar    1  UNL1        0.0027
      6 C         138.6586  144.0682  164.9766 C.ar    1  UNL1        0.0001
      7 C         138.1961  144.4532  163.6025 C.ar    1  UNL1        0.0015
      8 C         139.1730  144.4879  162.4647 C.ar    1  UNL1        0.0193
      9 C         140.6122  144.1376  162.7010 C.ar    1  UNL1        0.0870
     10 C         141.5174  145.8255  154.5189 C.3     1  UNL1        0.0137
     11 C         141.5261  145.5156  155.9865 C.3     1  UNL1        0.0932
     12 C         142.6515  144.5923  155.6247 C.3     1  UNL1        0.0137
     13 C         140.3988  146.5037  156.0415 C.2     1  UNL1        0.2302
     14 O         139.8251  147.2525  154.8753 O.2     1  UNL1       -0.2744
     15 N         139.9461  146.6115  157.4675 N.am    1  UNL1       -0.2692
     16 C         140.7935  145.6901  158.2938 C.ar    1  UNL1        0.1363
     17 N         140.8022  145.3803  159.7614 N.ar    1  UNL1       -0.1951
     18 C         141.7873  144.3932  160.3137 C.ar    1  UNL1        0.2553
     19 N         142.7638  143.7158  159.3984 N.ar    1  UNL1       -0.1957
     20 C         142.7551  144.0256  157.9308 C.ar    1  UNL1        0.1276
     21 N         143.7316  143.3483  157.0155 N.pl3   1  UNL1       -0.3427
     22 C         141.7700  145.0128  157.3785 C.ar    1  UNL1        0.0484
     23 H         139.2202  147.1862  157.8023 H       1  UNL1        0.1563
     24 H         144.3782  142.7004  157.3780 H       1  UNL1        0.1437
     25 H         143.7259  143.5517  156.0523 H       1  UNL1        0.1437
     26 C         143.4151  143.0379  165.1505 C.3     1  UNL1        0.0762
     27 C         143.3240  141.6397  165.6860 C.ar    1  UNL1        0.0113
     28 C         143.8267  140.4884  164.8663 C.ar    1  UNL1       -0.0017
     29 C         143.7356  139.0903  165.4018 C.ar    1  UNL1       -0.0002
     30 C         143.1418  138.8434  166.7569 C.ar    1  UNL1        0.0023
     31 C         142.6391  139.9945  167.5765 C.ar    1  UNL1        0.0293
     32 C         142.7302  141.3928  167.0411 C.ar    1  UNL1        0.1365
     33 F         142.2274  142.5440  167.8608 F       1  UNL1       -0.2045
@<TRIPOS>BOND
     1    10    11    1
     2    11    12    1
     3    11    13    1
     4    13    14    2
     5    13    15   am
     6    15    16    1
     7    16    17   ar
     8    17    18   ar
     9    18     1    1
    10     1     2   ar
    11     2     3   ar
    12     3    26    1
    13    26    27    1
    14    27    28   ar
    15    28    29   ar
    16    29    30   ar
    17    30    31   ar
    18    31    32   ar
    19    32    33    1
    20     3     4   ar
    21     4     5   ar
    22     5     6   ar
    23     6     7   ar
    24     7     8   ar
    25     8     9   ar
    26    18    19   ar
    27    19    20   ar
    28    20    21    1
    29    20    22   ar
    30    22    11    1
    31    22    16   ar
    32     9     1   ar
    33    32    27   ar
    34     9     4   ar
    35    15    23    1
    36    21    24    1
    37    21    25    1
@<TRIPOS>MOLECULE
*****
 33 37 0 0 0
SMALL
GASTEIGER

@<TRIPOS>ATOM
      1 N         142.9395  138.8341  160.7223 N.ar    1  UNL1       -0.1967
      2 N         144.0262  139.8533  160.8969 N.ar    1  UNL1       -0.1666
      3 C         144.2214  140.0755  162.3674 C.ar    1  UNL1        0.0849
      4 C         143.2554  139.1936  163.1017 C.ar    1  UNL1        0.0334
      5 C         142.9948  138.9901  164.5648 C.ar    1  UNL1        0.0027
      6 C         141.9420  138.0194  165.0111 C.ar    1  UNL1        0.0001
      7 C         141.1497  137.2522  163.9944 C.ar    1  UNL1        0.0015
      8 C         141.4103  137.4557  162.5313 C.ar    1  UNL1        0.0193
      9 C         142.4631  138.4264  162.0849 C.ar    1  UNL1        0.0870
     10 C         140.0789  136.3778  154.2693 C.3     1  UNL1        0.0137
     11 C         140.5981  136.8979  155.5770 C.3     1  UNL1        0.0932
     12 C         141.8656  136.2077  155.1686 C.3     1  UNL1        0.0137
     13 C         139.2220  137.4794  155.7121 C.2     1  UNL1        0.2302
     14 O         138.1079  137.3487  154.7163 O.2     1  UNL1       -0.2744
     15 N         139.1556  138.2146  157.0179 N.am    1  UNL1       -0.2692
     16 C         140.4907  138.0875  157.6898 C.ar    1  UNL1        0.1363
     17 N         141.0098  138.6077  158.9975 N.ar    1  UNL1       -0.1951
     18 C         142.4203  138.3140  159.4146 C.ar    1  UNL1        0.2553
     19 N         143.3118  137.5002  158.5241 N.ar    1  UNL1       -0.1957
     20 C         142.7927  136.9801  157.2164 C.ar    1  UNL1        0.1276
     21 N         143.6842  136.1663  156.3259 N.pl3   1  UNL1       -0.3427
     22 C         141.3822  137.2737  156.7993 C.ar    1  UNL1        0.0484
     23 H         138.3732  138.6961  157.3718 H       1  UNL1        0.1563
     24 H         144.6100  135.9735  156.5997 H       1  UNL1        0.1437
     25 H         143.3435  135.8249  155.4677 H       1  UNL1        0.1437
     26 C         145.2092  141.0146  162.9937 C.3     1  UNL1        0.0762
     27 C         144.7692  142.3772  163.4407 C.ar    1  UNL1        0.0113
     28 C         144.7262  142.7094  164.9028 C.ar    1  UNL1       -0.0017
     29 C         144.2862  144.0719  165.3497 C.ar    1  UNL1       -0.0002
     30 C         143.8892  145.1023  164.3345 C.ar    1  UNL1        0.0023
     31 C         143.9322  144.7702  162.8724 C.ar    1  UNL1        0.0293
     32 C         144.3722  143.4076  162.4255 C.ar    1  UNL1        0.1365
     33 F         144.4152  143.0755  160.9633 F       1  UNL1       -0.2045
@<TRIPOS>BOND
     1    10    11    1
     2    11    12    1
     3    11    13    1
     4    13    14    2
     5    13    15   am
     6    15    16    1
     7    16    17   ar
     8    17    18   ar
     9    18     1    1
    10     1     2   ar
    11     2     3   ar
    12     3    26    1
    13    26    27    1
    14    27    28   ar
    15    28    29   ar
    16    29    30   ar
    17    30    31   ar
    18    31    32   ar
    19    32    33    1
    20     3     4   ar
    21     4     5   ar
    22     5     6   ar
    23     6     7   ar
    24     7     8   ar
    25     8     9   ar
    26    18    19   ar
    27    19    20   ar
    28    20    21    1
    29    20    22   ar
    30    22    11    1
    31    22    16   ar
    32     9     1   ar
    33    32    27   ar
    34     9     4   ar
    35    15    23    1
    36    21    24    1
    37    21    25    1
@<TRIPOS>MOLECULE
*****
 33 37 0 0 0
SMALL
GASTEIGER

@<TRIPOS>ATOM
      1 N         140.5907  142.5784  163.9668 N.ar    1  UNL1       -0.1967
      2 N         140.8194  143.3446  165.2359 N.ar    1  UNL1       -0.1666
      3 C         140.2920  142.5232  166.3748 C.ar    1  UNL1        0.0849
      4 C         139.7373  141.2492  165.8095 C.ar    1  UNL1        0.0334
      5 C         139.0879  140.0625  166.4576 C.ar    1  UNL1        0.0027
      6 C         138.6232  138.9101  165.6175 C.ar    1  UNL1        0.0001
      7 C         138.8078  138.9443  164.1293 C.ar    1  UNL1        0.0015
      8 C         139.4571  140.1310  163.4812 C.ar    1  UNL1        0.0193
      9 C         139.9219  141.2834  164.3213 C.ar    1  UNL1        0.0870
     10 C         142.2117  145.0138  157.0894 C.3     1  UNL1        0.0137
     11 C         141.8373  144.5639  158.4706 C.3     1  UNL1        0.0932
     12 C         143.0374  143.6742  158.3358 C.3     1  UNL1        0.0137
     13 C         140.7155  145.5477  158.3166 C.2     1  UNL1        0.2302
     14 O         140.4561  146.4082  157.1157 O.2     1  UNL1       -0.2744
     15 N         139.8987  145.5198  159.5744 N.am    1  UNL1       -0.2692
     16 C         140.5157  144.5188  160.5057 C.ar    1  UNL1        0.1363
     17 N         140.1413  144.0690  161.8868 N.ar    1  UNL1       -0.1951
     18 C         140.9651  143.0283  162.5856 C.ar    1  UNL1        0.2553
     19 N         142.1632  142.4375  161.9034 N.ar    1  UNL1       -0.1957
     20 C         142.5376  142.8874  160.5224 C.ar    1  UNL1        0.1276
     21 N         143.7358  142.2966  159.8402 N.pl3   1  UNL1       -0.3427
     22 C         141.7139  143.9280  159.8235 C.ar    1  UNL1        0.0484
     23 H         139.0982  146.0631  159.7567 H       1  UNL1        0.1563
     24 H         144.2764  141.6136  160.2989 H       1  UNL1        0.1437
     25 H         143.9815  142.5918  158.9337 H       1  UNL1        0.1437
     26 C         140.3152  142.9080  167.8244 C.3     1  UNL1        0.0762
     27 C         141.1170  142.1008  168.8019 C.ar    1  UNL1        0.0113
     28 C         142.6090  142.2475  168.8501 C.ar    1  UNL1       -0.0017
     29 C         143.4107  141.4402  169.8276 C.ar    1  UNL1       -0.0002
     30 C         142.7205  140.4863  170.7569 C.ar    1  UNL1        0.0023
     31 C         141.2285  140.3396  170.7086 C.ar    1  UNL1        0.0293
     32 C         140.4267  141.1468  169.7311 C.ar    1  UNL1        0.1365
     33 F         138.9347  141.0001  169.6829 F       1  UNL1       -0.2045
@<TRIPOS>BOND
     1    10    11    1
     2    11    12    1
     3    11    13    1
     4    13    14    2
     5    13    15   am
     6    15    16    1
     7    16    17   ar
     8    17    18   ar
     9    18     1    1
    10     1     2   ar
    11     2     3   ar
    12     3    26    1
    13    26    27    1
    14    27    28   ar
    15    28    29   ar
    16    29    30   ar
    17    30    31   ar
    18    31    32   ar
    19    32    33    1
    20     3     4   ar
    21     4     5   ar
    22     5     6   ar
    23     6     7   ar
    24     7     8   ar
    25     8     9   ar
    26    18    19   ar
    27    19    20   ar
    28    20    21    1
    29    20    22   ar
    30    22    11    1
    31    22    16   ar
    32     9     1   ar
    33    32    27   ar
    34     9     4   ar
    35    15    23    1
    36    21    24    1
    37    21    25    1
@<TRIPOS>MOLECULE
*****
 33 37 0 0 0
SMALL
GASTEIGER

@<TRIPOS>ATOM
      1 N         141.9887  142.5900  163.0362 N.ar    1  UNL1       -0.1967
      2 N         142.6985  142.0805  164.2556 N.ar    1  UNL1       -0.1666
      3 C         141.9063  142.4949  165.4600 C.ar    1  UNL1        0.0849
      4 C         140.7070  143.2605  164.9851 C.ar    1  UNL1        0.0334
      5 C         139.5751  143.9117  165.7231 C.ar    1  UNL1        0.0027
      6 C         138.4942  144.6217  164.9632 C.ar    1  UNL1        0.0001
      7 C         138.5451  144.6804  163.4652 C.ar    1  UNL1        0.0015
      8 C         139.6770  144.0292  162.7272 C.ar    1  UNL1        0.0193
      9 C         140.7579  143.3192  163.4871 C.ar    1  UNL1        0.0870
     10 C         144.2498  141.3573  156.0201 C.3     1  UNL1        0.0137
     11 C         143.8065  141.5444  157.4409 C.3     1  UNL1        0.0932
     12 C         143.5922  142.9684  157.0212 C.3     1  UNL1        0.0137
     13 C         144.1135  140.0813  157.5637 C.2     1  UNL1        0.2302
     14 O         144.6284  139.1936  156.4697 O.2     1  UNL1       -0.2744
     15 N         143.8152  139.6617  158.9726 N.am    1  UNL1       -0.2692
     16 C         143.3238  140.8655  159.7206 C.ar    1  UNL1        0.1363
     17 N         142.8806  141.0524  161.1413 N.ar    1  UNL1       -0.1951
     18 C         142.4320  142.4030  161.6154 C.ar    1  UNL1        0.2553
     19 N         142.4266  143.5665  160.6688 N.ar    1  UNL1       -0.1957
     20 C         142.8699  143.3796  159.2481 C.ar    1  UNL1        0.1276
     21 N         142.8645  144.5431  158.3014 N.pl3   1  UNL1       -0.3427
     22 C         143.3185  142.0291  158.7739 C.ar    1  UNL1        0.0484
     23 H         143.9230  138.7554  159.3416 H       1  UNL1        0.1563
     24 H         142.5701  145.4295  158.6126 H       1  UNL1        0.1437
     25 H         143.1554  144.4204  157.3689 H       1  UNL1        0.1437
     26 C         142.2527  142.1962  166.8886 C.3     1  UNL1        0.0762
     27 C         141.2083  141.6462  167.8143 C.ar    1  UNL1        0.0113
     28 C         140.4264  140.4273  167.4233 C.ar    1  UNL1       -0.0017
     29 C         139.3821  139.8775  168.3490 C.ar    1  UNL1       -0.0002
     30 C         139.1197  140.5465  169.6656 C.ar    1  UNL1        0.0023
     31 C         139.9016  141.7653  170.0566 C.ar    1  UNL1        0.0293
     32 C         140.9459  142.3152  169.1309 C.ar    1  UNL1        0.1365
     33 F         141.7279  143.5341  169.5219 F       1  UNL1       -0.2045
@<TRIPOS>BOND
     1    10    11    1
     2    11    12    1
     3    11    13    1
     4    13    14    2
     5    13    15   am
     6    15    16    1
     7    16    17   ar
     8    17    18   ar
     9    18     1    1
    10     1     2   ar
    11     2     3   ar
    12     3    26    1
    13    26    27    1
    14    27    28   ar
    15    28    29   ar
    16    29    30   ar
    17    30    31   ar
    18    31    32   ar
    19    32    33    1
    20     3     4   ar
    21     4     5   ar
    22     5     6   ar
    23     6     7   ar
    24     7     8   ar
    25     8     9   ar
    26    18    19   ar
    27    19    20   ar
    28    20    21    1
    29    20    22   ar
    30    22    11    1
    31    22    16   ar
    32     9     1   ar
    33    32    27   ar
    34     9     4   ar
    35    15    23    1
    36    21    24    1
    37    21    25    1
@<TRIPOS>MOLECULE
*****
 33 37 0 0 0
SMALL
GASTEIGER

@<TRIPOS>ATOM
      1 N         141.0151  141.3829  163.3419 N.ar    1  UNL1       -0.1967
      2 N         141.9079  141.2684  164.5419 N.ar    1  UNL1       -0.1666
      3 C         141.4010  142.2154  165.5889 C.ar    1  UNL1        0.0849
      4 C         140.1948  142.9152  165.0360 C.ar    1  UNL1        0.0334
      5 C         139.2829  143.9544  165.6176 C.ar    1  UNL1        0.0027
      6 C         138.1326  144.4791  164.8107 C.ar    1  UNL1        0.0001
      7 C         137.8941  143.9646  163.4220 C.ar    1  UNL1        0.0015
      8 C         138.8060  142.9254  162.8403 C.ar    1  UNL1        0.0193
      9 C         139.9564  142.4006  163.6473 C.ar    1  UNL1        0.0870
     10 C         141.4079  137.5587  156.9327 C.3     1  UNL1        0.0137
     11 C         141.2667  138.3271  158.2132 C.3     1  UNL1        0.0932
     12 C         142.7639  138.2419  158.2458 C.3     1  UNL1        0.0137
     13 C         139.7990  138.2517  157.9130 C.2     1  UNL1        0.2302
     14 O         139.1760  137.5887  156.7204 O.2     1  UNL1       -0.2744
     15 N         139.0638  138.9556  159.0147 N.am    1  UNL1       -0.2692
     16 C         140.0771  139.4661  159.9959 C.ar    1  UNL1        0.1363
     17 N         139.9359  140.2345  161.2763 N.ar    1  UNL1       -0.1951
     18 C         141.1562  140.6144  162.0614 C.ar    1  UNL1        0.2553
     19 N         142.5177  140.2260  161.5661 N.ar    1  UNL1       -0.1957
     20 C         142.6589  139.4576  160.2856 C.ar    1  UNL1        0.1276
     21 N         144.0204  139.0691  159.7902 N.pl3   1  UNL1       -0.3427
     22 C         141.4386  139.0777  159.5005 C.ar    1  UNL1        0.0484
     23 H         138.0876  139.0636  159.0820 H       1  UNL1        0.1563
     24 H         144.8214  139.3185  160.3056 H       1  UNL1        0.1437
     25 H         144.1131  138.5648  158.9498 H       1  UNL1        0.1437
     26 C         141.9957  142.4257  166.9498 C.3     1  UNL1        0.0762
     27 C         141.4012  141.7374  168.1426 C.ar    1  UNL1        0.0113
     28 C         141.7606  140.3123  168.4426 C.ar    1  UNL1       -0.0017
     29 C         141.1660  139.6242  169.6354 C.ar    1  UNL1       -0.0002
     30 C         140.2121  140.3610  170.5282 C.ar    1  UNL1        0.0023
     31 C         139.8527  141.7860  170.2282 C.ar    1  UNL1        0.0293
     32 C         140.4473  142.4742  169.0354 C.ar    1  UNL1        0.1365
     33 F         140.0879  143.8993  168.7353 F       1  UNL1       -0.2045
@<TRIPOS>BOND
     1    10    11    1
     2    11    12    1
     3    11    13    1
     4    13    14    2
     5    13    15   am
     6    15    16    1
     7    16    17   ar
     8    17    18   ar
     9    18     1    1
    10     1     2   ar
    11     2     3   ar
    12     3    26    1
    13    26    27    1
    14    27    28   ar
    15    28    29   ar
    16    29    30   ar
    17    30    31   ar
    18    31    32   ar
    19    32    33    1
    20     3     4   ar
    21     4     5   ar
    22     5     6   ar
    23     6     7   ar
    24     7     8   ar
    25     8     9   ar
    26    18    19   ar
    27    19    20   ar
    28    20    21    1
    29    20    22   ar
    30    22    11    1
    31    22    16   ar
    32     9     1   ar
    33    32    27   ar
    34     9     4   ar
    35    15    23    1
    36    21    24    1
    37    21    25    1
@<TRIPOS>MOLECULE
*****
 33 37 0 0 0
SMALL
GASTEIGER

@<TRIPOS>ATOM
      1 N         141.2927  144.1842  161.4833 N.ar    1  UNL1       -0.1967
      2 N         140.0525  144.1499  162.3264 N.ar    1  UNL1       -0.1666
      3 C         140.4471  143.7423  163.7150 C.ar    1  UNL1        0.0849
      4 C         141.9312  143.5248  163.7301 C.ar    1  UNL1        0.0334
      5 C         142.8743  143.1133  164.8215 C.ar    1  UNL1        0.0027
      6 C         144.3398  142.9749  164.5337 C.ar    1  UNL1        0.0001
      7 C         144.8625  143.2480  163.1544 C.ar    1  UNL1        0.0015
      8 C         143.9194  143.6595  162.0630 C.ar    1  UNL1        0.0193
      9 C         142.4538  143.7979  162.3508 C.ar    1  UNL1        0.0870
     10 C         141.3861  146.1598  154.2760 C.3     1  UNL1        0.0137
     11 C         141.3189  145.8019  155.7312 C.3     1  UNL1        0.0932
     12 C         142.4800  144.9105  155.4040 C.3     1  UNL1        0.0137
     13 C         140.1717  146.7681  155.7541 C.2     1  UNL1        0.2302
     14 O         139.6497  147.5450  154.5819 O.2     1  UNL1       -0.2744
     15 N         139.6383  146.8210  157.1550 N.am    1  UNL1       -0.2692
     16 C         140.4557  145.8876  157.9979 C.ar    1  UNL1        0.1363
     17 N         140.3885  145.5298  159.4530 N.ar    1  UNL1       -0.1951
     18 C         141.3599  144.5421  160.0281 C.ar    1  UNL1        0.2553
     19 N         142.3986  143.9122  159.1481 N.ar    1  UNL1       -0.1957
     20 C         142.4658  144.2700  157.6930 C.ar    1  UNL1        0.1276
     21 N         143.5045  143.6401  156.8130 N.pl3   1  UNL1       -0.3427
     22 C         141.4944  145.2577  157.1179 C.ar    1  UNL1        0.0484
     23 H         138.8841  147.3718  157.4666 H       1  UNL1        0.1563
     24 H         144.1421  142.9919  157.1904 H       1  UNL1        0.1437
     25 H         143.5486  143.8750  155.8579 H       1  UNL1        0.1437
     26 C         139.5204  143.5807  164.8834 C.3     1  UNL1        0.0762
     27 C         139.3171  142.2275  165.4977 C.ar    1  UNL1        0.0113
     28 C         138.4428  141.2176  164.8152 C.ar    1  UNL1       -0.0017
     29 C         138.2395  139.8645  165.4296 C.ar    1  UNL1       -0.0002
     30 C         138.9105  139.5211  166.7265 C.ar    1  UNL1        0.0023
     31 C         139.7847  140.5309  167.4089 C.ar    1  UNL1        0.0293
     32 C         139.9881  141.8841  166.7946 C.ar    1  UNL1        0.1365
     33 F         140.8624  142.8940  167.4771 F       1  UNL1       -0.2045
@<TRIPOS>BOND
     1    10    11    1
     2    11    12    1
     3    11    13    1
     4    13    14    2
     5    13    15   am
     6    15    16    1
     7    16    17   ar
     8    17    18   ar
     9    18     1    1
    10     1     2   ar
    11     2     3   ar
    12     3    26    1
    13    26    27    1
    14    27    28   ar
    15    28    29   ar
    16    29    30   ar
    17    30    31   ar
    18    31    32   ar
    19    32    33    1
    20     3     4   ar
    21     4     5   ar
    22     5     6   ar
    23     6     7   ar
    24     7     8   ar
    25     8     9   ar
    26    18    19   ar
    27    19    20   ar
    28    20    21    1
    29    20    22   ar
    30    22    11    1
    31    22    16   ar
    32     9     1   ar
    33    32    27   ar
    34     9     4   ar
    35    15    23    1
    36    21    24    1
    37    21    25    1
@<TRIPOS>MOLECULE
*****
 33 37 0 0 0
SMALL
GASTEIGER

@<TRIPOS>ATOM
      1 N         140.2852  140.2177  163.4037 N.ar    1  UNL1       -0.1967
      2 N         140.6645  141.5736  163.9212 N.ar    1  UNL1       -0.1666
      3 C         140.1645  141.6883  165.3308 C.ar    1  UNL1        0.0849
      4 C         139.4762  140.4033  165.6844 C.ar    1  UNL1        0.0334
      5 C         138.7911  139.9433  166.9370 C.ar    1  UNL1        0.0027
      6 C         138.1807  138.5746  166.9987 C.ar    1  UNL1        0.0001
      7 C         138.2553  137.6657  165.8077 C.ar    1  UNL1        0.0015
      8 C         138.9403  138.1257  164.5551 C.ar    1  UNL1        0.0193
      9 C         139.5508  139.4944  164.4934 C.ar    1  UNL1        0.0870
     10 C         141.5004  137.6118  156.5052 C.3     1  UNL1        0.0137
     11 C         141.1982  138.1498  157.8724 C.3     1  UNL1        0.0932
     12 C         142.6116  137.7463  158.1716 C.3     1  UNL1        0.0137
     13 C         139.8480  138.4409  157.2875 C.2     1  UNL1        0.2302
     14 O         139.4150  138.1495  155.8812 O.2     1  UNL1       -0.2744
     15 N         139.0069  139.0745  158.3557 N.am    1  UNL1       -0.2692
     16 C         139.8373  139.1750  159.6008 C.ar    1  UNL1        0.1363
     17 N         139.5351  139.7131  160.9680 N.ar    1  UNL1       -0.1951
     18 C         140.5873  139.6797  162.0365 C.ar    1  UNL1        0.2553
     19 N         141.9417  139.1082  161.7378 N.ar    1  UNL1       -0.1957
     20 C         142.2438  138.5701  160.3707 C.ar    1  UNL1        0.1276
     21 N         143.5981  137.9987  160.0720 N.pl3   1  UNL1       -0.3427
     22 C         141.1916  138.6035  159.3022 C.ar    1  UNL1        0.0484
     23 H         138.0737  139.3721  158.2569 H       1  UNL1        0.1563
     24 H         144.2887  137.9768  160.7733 H       1  UNL1        0.1437
     25 H         143.7964  137.6455  159.1747 H       1  UNL1        0.1437
     26 C         140.3247  142.8789  166.2290 C.3     1  UNL1        0.0762
     27 C         141.1058  142.7570  167.5037 C.ar    1  UNL1        0.0113
     28 C         140.4578  143.0887  168.8152 C.ar    1  UNL1       -0.0017
     29 C         141.2389  142.9668  170.0898 C.ar    1  UNL1       -0.0002
     30 C         142.6682  142.5131  170.0531 C.ar    1  UNL1        0.0023
     31 C         143.3163  142.1814  168.7417 C.ar    1  UNL1        0.0293
     32 C         142.5351  142.3033  167.4670 C.ar    1  UNL1        0.1365
     33 F         143.1832  141.9715  166.1555 F       1  UNL1       -0.2045
@<TRIPOS>BOND
     1    10    11    1
     2    11    12    1
     3    11    13    1
     4    13    14    2
     5    13    15   am
     6    15    16    1
     7    16    17   ar
     8    17    18   ar
     9    18     1    1
    10     1     2   ar
    11     2     3   ar
    12     3    26    1
    13    26    27    1
    14    27    28   ar
    15    28    29   ar
    16    29    30   ar
    17    30    31   ar
    18    31    32   ar
    19    32    33    1
    20     3     4   ar
    21     4     5   ar
    22     5     6   ar
    23     6     7   ar
    24     7     8   ar
    25     8     9   ar
    26    18    19   ar
    27    19    20   ar
    28    20    21    1
    29    20    22   ar
    30    22    11    1
    31    22    16   ar
    32     9     1   ar
    33    32    27   ar
    34     9     4   ar
    35    15    23    1
    36    21    24    1
    37    21    25    1
