@<TRIPOS>MOLECULE
*****
 25 28 0 0 0
SMALL
GASTEIGER

@<TRIPOS>ATOM
      1 C         138.5516  138.4663  162.8432 C.ar    1  UNL1       -0.0059
      2 C         138.8710  137.3528  163.7961 C.ar    1  UNL1        0.0002
      3 C         138.8440  137.6006  165.2753 C.ar    1  UNL1        0.0373
      4 C         138.4975  138.9619  165.8015 C.ar    1  UNL1        0.1477
      5 C         138.1780  140.0754  164.8484 C.ar    1  UNL1        0.0373
      6 C         138.2051  139.8275  163.3693 C.ar    1  UNL1        0.0002
      7 C         138.5786  138.2185  161.3640 C.3     1  UNL1        0.0992
      8 O         143.6862  138.9270  158.2964 O.3     1  UNL1       -0.3844
      9 C         142.4093  138.7499  159.0633 C.3     1  UNL1        0.1133
     10 C         141.0900  138.9720  158.3849 C.3     1  UNL1        0.0466
     11 C         139.8131  138.7949  159.1518 C.3     1  UNL1        0.0749
     12 N         139.8555  138.3956  160.5971 N.3     1  UNL1       -0.2688
     13 C         141.1747  138.1735  161.2754 C.3     1  UNL1        0.0749
     14 C         142.4517  138.3506  160.5085 C.3     1  UNL1        0.0466
     15 H         143.4821  139.1839  157.3835 H       1  UNL1        0.2103
     16 O         138.4704  139.2097  167.2806 O.3     1  UNL1       -0.4313
     17 C         139.5591  140.0147  167.9262 C.ar    1  UNL1        0.2628
     18 N         139.4576  140.7489  169.2302 N.ar    1  UNL1       -0.2050
     19 C         140.7762  141.4148  169.4912 C.ar    1  UNL1        0.0910
     20 C         141.2608  142.2733  170.6217 C.ar    1  UNL1        0.0197
     21 C         142.6618  142.8090  170.6094 C.ar    1  UNL1        0.0016
     22 C         143.5782  142.4862  169.4666 C.ar    1  UNL1        0.0006
     23 C         143.0936  141.6278  168.3360 C.ar    1  UNL1        0.0081
     24 C         141.6926  141.0920  168.3483 C.ar    1  UNL1        0.0515
     25 S         140.9404  140.2267  167.3812 S.2     1  UNL1       -0.0283
@<TRIPOS>BOND
     1     8     9    1
     2     9    10    1
     3    10    11    1
     4    11    12    1
     5    12     7    1
     6     7     1    1
     7     1     2   ar
     8     2     3   ar
     9     3     4   ar
    10     4    16    1
    11    16    17    1
    12    17    18   ar
    13    18    19   ar
    14    19    20   ar
    15    20    21   ar
    16    21    22   ar
    17    22    23   ar
    18    23    24   ar
    19    24    25   ar
    20     4     5   ar
    21     5     6   ar
    22    12    13    1
    23    13    14    1
    24    14     9    1
    25     6     1   ar
    26    25    17   ar
    27    24    19   ar
    28     8    15    1
@<TRIPOS>MOLECULE
*****
 25 28 0 0 0
SMALL
GASTEIGER

@<TRIPOS>ATOM
      1 C         139.4496  141.2098  165.9099 C.ar    1  UNL1       -0.0059
      2 C         140.2963  142.4278  166.1328 C.ar    1  UNL1        0.0002
      3 C         140.1932  143.5946  165.1957 C.ar    1  UNL1        0.0373
      4 C         139.2435  143.5434  164.0358 C.ar    1  UNL1        0.1477
      5 C         138.3968  142.3253  163.8129 C.ar    1  UNL1        0.0373
      6 C         138.4999  141.1586  164.7499 C.ar    1  UNL1        0.0002
      7 C         139.5527  140.0430  166.8469 C.3     1  UNL1        0.0992
      8 O         142.4691  140.6284  172.0576 O.3     1  UNL1       -0.3844
      9 C         141.7400  140.4820  170.7550 C.3     1  UNL1        0.1133
     10 C         142.4880  140.0827  169.5175 C.3     1  UNL1        0.0466
     11 C         141.7589  139.9364  168.2149 C.3     1  UNL1        0.0749
     12 N         140.2818  140.1893  168.1496 N.3     1  UNL1       -0.2688
     13 C         139.5338  140.5886  169.3869 C.3     1  UNL1        0.0749
     14 C         140.2629  140.7350  170.6897 C.3     1  UNL1        0.0466
     15 H         143.4095  140.4303  171.9258 H       1  UNL1        0.2103
     16 O         139.1404  144.7101  163.0988 O.3     1  UNL1       -0.4313
     17 C         139.8991  144.7022  161.8048 C.ar    1  UNL1        0.2628
     18 N         139.6867  145.6386  160.6524 N.ar    1  UNL1       -0.2050
     19 C         140.6597  145.2716  159.5714 C.ar    1  UNL1        0.0910
     20 C         140.9098  145.8463  158.2087 C.ar    1  UNL1        0.0197
     21 C         141.9737  145.2578  157.3303 C.ar    1  UNL1        0.0016
     22 C         142.7874  144.0945  157.8145 C.ar    1  UNL1        0.0006
     23 C         142.5373  143.5197  159.1772 C.ar    1  UNL1        0.0081
     24 C         141.4734  144.1083  160.0557 C.ar    1  UNL1        0.0515
     25 S         141.0033  143.7564  161.4360 S.2     1  UNL1       -0.0283
@<TRIPOS>BOND
     1     8     9    1
     2     9    10    1
     3    10    11    1
     4    11    12    1
     5    12     7    1
     6     7     1    1
     7     1     2   ar
     8     2     3   ar
     9     3     4   ar
    10     4    16    1
    11    16    17    1
    12    17    18   ar
    13    18    19   ar
    14    19    20   ar
    15    20    21   ar
    16    21    22   ar
    17    22    23   ar
    18    23    24   ar
    19    24    25   ar
    20     4     5   ar
    21     5     6   ar
    22    12    13    1
    23    13    14    1
    24    14     9    1
    25     6     1   ar
    26    25    17   ar
    27    24    19   ar
    28     8    15    1
@<TRIPOS>MOLECULE
*****
 25 28 0 0 0
SMALL
GASTEIGER

@<TRIPOS>ATOM
      1 C         138.4892  138.5583  162.8524 C.ar    1  UNL1       -0.0059
      2 C         138.1319  139.9007  163.4183 C.ar    1  UNL1        0.0002
      3 C         138.1446  140.1164  164.9027 C.ar    1  UNL1        0.0373
      4 C         138.5146  138.9897  165.8211 C.ar    1  UNL1        0.1477
      5 C         138.8719  137.6472  165.2552 C.ar    1  UNL1        0.0373
      6 C         138.8592  137.4315  163.7709 C.ar    1  UNL1        0.0002
      7 C         138.4765  138.3425  161.3680 C.3     1  UNL1        0.0992
      8 O         143.5787  138.7365  158.2356 O.3     1  UNL1       -0.3844
      9 C         142.3032  138.6380  159.0187 C.3     1  UNL1        0.1133
     10 C         140.9855  138.8600  158.3370 C.3     1  UNL1        0.0466
     11 C         139.7100  138.7615  159.1201 C.3     1  UNL1        0.0749
     12 N         139.7521  138.4410  160.5849 N.3     1  UNL1       -0.2688
     13 C         141.0696  138.2190  161.2665 C.3     1  UNL1        0.0749
     14 C         142.3452  138.3175  160.4834 C.3     1  UNL1        0.0466
     15 H         143.3750  138.9487  157.3112 H       1  UNL1        0.2103
     16 O         138.5273  139.2054  167.3055 O.3     1  UNL1       -0.4313
     17 C         139.6170  140.0212  167.9355 C.ar    1  UNL1        0.2628
     18 N         140.9426  140.3505  167.3156 N.ar    1  UNL1       -0.2050
     19 C         141.7173  141.1839  168.2931 C.ar    1  UNL1        0.0910
     20 C         143.0843  141.7975  168.2267 C.ar    1  UNL1        0.0197
     21 C         143.6046  142.5969  169.3843 C.ar    1  UNL1        0.0016
     22 C         142.7577  142.7828  170.6084 C.ar    1  UNL1        0.0006
     23 C         141.3906  142.1691  170.6747 C.ar    1  UNL1        0.0081
     24 C         140.8704  141.3697  169.5171 C.ar    1  UNL1        0.0515
     25 S         139.5723  140.6511  169.2961 S.2     1  UNL1       -0.0283
@<TRIPOS>BOND
     1     8     9    1
     2     9    10    1
     3    10    11    1
     4    11    12    1
     5    12     7    1
     6     7     1    1
     7     1     2   ar
     8     2     3   ar
     9     3     4   ar
    10     4    16    1
    11    16    17    1
    12    17    18   ar
    13    18    19   ar
    14    19    20   ar
    15    20    21   ar
    16    21    22   ar
    17    22    23   ar
    18    23    24   ar
    19    24    25   ar
    20     4     5   ar
    21     5     6   ar
    22    12    13    1
    23    13    14    1
    24    14     9    1
    25     6     1   ar
    26    25    17   ar
    27    24    19   ar
    28     8    15    1
@<TRIPOS>MOLECULE
*****
 25 28 0 0 0
SMALL
GASTEIGER

@<TRIPOS>ATOM
      1 C         139.4676  140.8217  166.2219 C.ar    1  UNL1       -0.0059
      2 C         138.5960  139.9561  165.3610 C.ar    1  UNL1        0.0002
      3 C         137.9540  140.5262  164.1310 C.ar    1  UNL1        0.0373
      4 C         138.1837  141.9619  163.7619 C.ar    1  UNL1        0.1477
      5 C         139.0554  142.8274  164.6228 C.ar    1  UNL1        0.0373
      6 C         139.6973  142.2573  165.8528 C.ar    1  UNL1        0.0002
      7 C         140.1096  140.2515  167.4519 C.3     1  UNL1        0.0992
      8 O         143.3753  143.7800  171.0414 O.3     1  UNL1       -0.3844
      9 C         142.5589  142.8979  170.1440 C.3     1  UNL1        0.1133
     10 C         143.2287  142.1022  169.0631 C.3     1  UNL1        0.0466
     11 C         142.4123  141.2201  168.1657 C.3     1  UNL1        0.0749
     12 N         140.9260  141.1337  168.3492 N.3     1  UNL1       -0.2688
     13 C         140.2562  141.9293  169.4301 C.3     1  UNL1        0.0749
     14 C         141.0727  142.8114  170.3275 C.3     1  UNL1        0.0466
     15 H         144.3102  143.7205  170.7897 H       1  UNL1        0.2103
     16 O         137.5417  142.5320  162.5319 O.3     1  UNL1       -0.4313
     17 C         138.3927  142.9795  161.3805 C.ar    1  UNL1        0.2628
     18 N         139.1670  144.2618  161.3026 N.ar    1  UNL1       -0.2050
     19 C         139.8716  144.2981  159.9788 C.ar    1  UNL1        0.0910
     20 C         140.7780  145.3155  159.3518 C.ar    1  UNL1        0.0197
     21 C         141.3454  145.0731  157.9847 C.ar    1  UNL1        0.0016
     22 C         141.0065  143.8132  157.2445 C.ar    1  UNL1        0.0006
     23 C         140.1002  142.7957  157.8715 C.ar    1  UNL1        0.0081
     24 C         139.5327  143.0382  159.2387 C.ar    1  UNL1        0.0515
     25 S         138.6187  142.2233  160.1050 S.2     1  UNL1       -0.0283
@<TRIPOS>BOND
     1     8     9    1
     2     9    10    1
     3    10    11    1
     4    11    12    1
     5    12     7    1
     6     7     1    1
     7     1     2   ar
     8     2     3   ar
     9     3     4   ar
    10     4    16    1
    11    16    17    1
    12    17    18   ar
    13    18    19   ar
    14    19    20   ar
    15    20    21   ar
    16    21    22   ar
    17    22    23   ar
    18    23    24   ar
    19    24    25   ar
    20     4     5   ar
    21     5     6   ar
    22    12    13    1
    23    13    14    1
    24    14     9    1
    25     6     1   ar
    26    25    17   ar
    27    24    19   ar
    28     8    15    1
@<TRIPOS>MOLECULE
*****
 25 28 0 0 0
SMALL
GASTEIGER

@<TRIPOS>ATOM
      1 C         141.9016  139.5144  166.7010 C.ar    1  UNL1       -0.0059
      2 C         140.4407  139.6412  166.3852 C.ar    1  UNL1        0.0002
      3 C         139.8618  138.9133  165.2083 C.ar    1  UNL1        0.0373
      4 C         140.7438  138.0586  164.3472 C.ar    1  UNL1        0.1477
      5 C         142.2048  137.9318  164.6630 C.ar    1  UNL1        0.0373
      6 C         142.7836  138.6597  165.8399 C.ar    1  UNL1        0.0002
      7 C         142.4805  140.2424  167.8779 C.3     1  UNL1        0.0992
      8 O         138.9095  143.4623  171.4666 O.3     1  UNL1       -0.3844
      9 C         139.8022  142.6573  170.5694 C.3     1  UNL1        0.1133
     10 C         140.6146  143.3414  169.5101 C.3     1  UNL1        0.0466
     11 C         141.5073  142.5364  168.6129 C.3     1  UNL1        0.0749
     12 N         141.5878  141.0474  168.7750 N.3     1  UNL1       -0.2688
     13 C         140.7755  140.3633  169.8344 C.3     1  UNL1        0.0749
     14 C         139.8826  141.1683  170.7316 C.3     1  UNL1        0.0466
     15 H         138.9746  144.4008  171.2300 H       1  UNL1        0.2103
     16 O         140.1650  137.3307  163.1703 O.3     1  UNL1       -0.4313
     17 C         139.8878  138.0688  161.8942 C.ar    1  UNL1        0.2628
     18 N         140.8484  138.2561  160.7575 N.ar    1  UNL1       -0.2050
     19 C         140.1557  139.0522  159.6915 C.ar    1  UNL1        0.0910
     20 C         140.6100  139.5391  158.3475 C.ar    1  UNL1        0.0197
     21 C         139.6756  140.3306  157.4813 C.ar    1  UNL1        0.0016
     22 C         138.2868  140.6352  157.9592 C.ar    1  UNL1        0.0006
     23 C         137.8324  140.1484  159.3033 C.ar    1  UNL1        0.0081
     24 C         138.7669  139.3569  160.1694 C.ar    1  UNL1        0.0515
     25 S         138.6013  138.7491  161.5307 S.2     1  UNL1       -0.0283
@<TRIPOS>BOND
     1     8     9    1
     2     9    10    1
     3    10    11    1
     4    11    12    1
     5    12     7    1
     6     7     1    1
     7     1     2   ar
     8     2     3   ar
     9     3     4   ar
    10     4    16    1
    11    16    17    1
    12    17    18   ar
    13    18    19   ar
    14    19    20   ar
    15    20    21   ar
    16    21    22   ar
    17    22    23   ar
    18    23    24   ar
    19    24    25   ar
    20     4     5   ar
    21     5     6   ar
    22    12    13    1
    23    13    14    1
    24    14     9    1
    25     6     1   ar
    26    25    17   ar
    27    24    19   ar
    28     8    15    1
@<TRIPOS>MOLECULE
*****
 25 28 0 0 0
SMALL
GASTEIGER

@<TRIPOS>ATOM
      1 C         143.0763  140.3414  166.1636 C.ar    1  UNL1       -0.0059
      2 C         143.7464  139.6730  164.9999 C.ar    1  UNL1        0.0002
      3 C         144.2787  140.4981  163.8658 C.ar    1  UNL1        0.0373
      4 C         144.1408  141.9914  163.8955 C.ar    1  UNL1        0.1477
      5 C         143.4707  142.6597  165.0593 C.ar    1  UNL1        0.0373
      6 C         142.9385  141.8347  166.1933 C.ar    1  UNL1        0.0002
      7 C         142.5440  139.5163  167.2977 C.3     1  UNL1        0.0992
      8 O         140.3148  142.2056  172.1760 O.3     1  UNL1       -0.3844
      9 C         140.8721  141.5333  170.9564 C.3     1  UNL1        0.1133
     10 C         139.9487  141.0570  169.8745 C.3     1  UNL1        0.0466
     11 C         140.5060  140.3847  168.6549 C.3     1  UNL1        0.0749
     12 N         141.9867  140.1886  168.5172 N.3     1  UNL1       -0.2688
     13 C         142.9102  140.6649  169.5991 C.3     1  UNL1        0.0749
     14 C         142.3529  141.3372  170.8187 C.3     1  UNL1        0.0466
     15 H         139.3484  142.2519  172.1065 H       1  UNL1        0.2103
     16 O         144.6731  142.8165  162.7615 O.3     1  UNL1       -0.4313
     17 C         143.7602  143.2402  161.6493 C.ar    1  UNL1        0.2628
     18 N         142.7006  144.2986  161.7331 N.ar    1  UNL1       -0.2050
     19 C         142.0321  144.3924  160.3935 C.ar    1  UNL1        0.0910
     20 C         140.9183  145.2595  159.8862 C.ar    1  UNL1        0.0197
     21 C         140.4510  145.1263  158.4671 C.ar    1  UNL1        0.0016
     22 C         141.0975  144.1259  157.5554 C.ar    1  UNL1        0.0006
     23 C         142.2113  143.2588  158.0627 C.ar    1  UNL1        0.0081
     24 C         142.6786  143.3920  159.4818 C.ar    1  UNL1        0.0515
     25 S         143.7466  142.6799  160.2579 S.2     1  UNL1       -0.0283
@<TRIPOS>BOND
     1     8     9    1
     2     9    10    1
     3    10    11    1
     4    11    12    1
     5    12     7    1
     6     7     1    1
     7     1     2   ar
     8     2     3   ar
     9     3     4   ar
    10     4    16    1
    11    16    17    1
    12    17    18   ar
    13    18    19   ar
    14    19    20   ar
    15    20    21   ar
    16    21    22   ar
    17    22    23   ar
    18    23    24   ar
    19    24    25   ar
    20     4     5   ar
    21     5     6   ar
    22    12    13    1
    23    13    14    1
    24    14     9    1
    25     6     1   ar
    26    25    17   ar
    27    24    19   ar
    28     8    15    1
@<TRIPOS>MOLECULE
*****
 25 28 0 0 0
SMALL
GASTEIGER

@<TRIPOS>ATOM
      1 C         139.9767  146.0322  155.6289 C.ar    1  UNL1       -0.0059
      2 C         141.1323  146.2052  156.5693 C.ar    1  UNL1        0.0002
      3 C         141.3430  145.2268  157.6867 C.ar    1  UNL1        0.0373
      4 C         140.3980  144.0754  157.8635 C.ar    1  UNL1        0.1477
      5 C         139.2423  143.9024  156.9230 C.ar    1  UNL1        0.0373
      6 C         139.0317  144.8808  155.8057 C.ar    1  UNL1        0.0002
      7 C         139.7660  147.0106  154.5115 C.3     1  UNL1        0.0992
      8 O         138.8496  152.8121  155.7369 O.3     1  UNL1       -0.3844
      9 C         139.0787  151.3618  155.4306 C.3     1  UNL1        0.1133
     10 C         140.0092  150.9671  154.3221 C.3     1  UNL1        0.0466
     11 C         140.2382  149.5168  154.0157 C.3     1  UNL1        0.0749
     12 N         139.5369  148.4609  154.8178 N.3     1  UNL1       -0.2688
     13 C         138.6065  148.8555  155.9263 C.3     1  UNL1        0.0749
     14 C         138.3774  150.3059  156.2327 C.3     1  UNL1        0.0466
     15 H         139.3746  153.3575  155.1304 H       1  UNL1        0.2103
     16 O         140.6087  143.0970  158.9808 O.3     1  UNL1       -0.4313
     17 C         140.1277  143.4229  160.3637 C.ar    1  UNL1        0.2628
     18 N         138.7190  143.2897  160.8615 N.ar    1  UNL1       -0.2050
     19 C         138.6917  143.7236  162.2971 C.ar    1  UNL1        0.0910
     20 C         137.5792  143.8051  163.3000 C.ar    1  UNL1        0.0197
     21 C         137.8586  144.2880  164.6924 C.ar    1  UNL1        0.0016
     22 C         139.2505  144.6894  165.0818 C.ar    1  UNL1        0.0006
     23 C         140.3629  144.6079  164.0790 C.ar    1  UNL1        0.0081
     24 C         140.0835  144.1250  162.6866 C.ar    1  UNL1        0.0515
     25 S         140.9710  143.9391  161.4917 S.2     1  UNL1       -0.0283
@<TRIPOS>BOND
     1     8     9    1
     2     9    10    1
     3    10    11    1
     4    11    12    1
     5    12     7    1
     6     7     1    1
     7     1     2   ar
     8     2     3   ar
     9     3     4   ar
    10     4    16    1
    11    16    17    1
    12    17    18   ar
    13    18    19   ar
    14    19    20   ar
    15    20    21   ar
    16    21    22   ar
    17    22    23   ar
    18    23    24   ar
    19    24    25   ar
    20     4     5   ar
    21     5     6   ar
    22    12    13    1
    23    13    14    1
    24    14     9    1
    25     6     1   ar
    26    25    17   ar
    27    24    19   ar
    28     8    15    1
@<TRIPOS>MOLECULE
*****
 25 28 0 0 0
SMALL
GASTEIGER

@<TRIPOS>ATOM
      1 C         142.2263  137.2526  157.1053 C.ar    1  UNL1       -0.0059
      2 C         142.5378  138.0471  158.3388 C.ar    1  UNL1        0.0002
      3 C         141.4384  138.7597  159.0694 C.ar    1  UNL1        0.0373
      4 C         140.0276  138.6777  158.5664 C.ar    1  UNL1        0.1477
      5 C         139.7162  137.8830  157.3329 C.ar    1  UNL1        0.0373
      6 C         140.8156  137.1705  156.6023 C.ar    1  UNL1        0.0002
      7 C         143.3257  136.5399  156.3747 C.3     1  UNL1        0.0992
      8 O         143.0289  130.6031  155.5593 O.3     1  UNL1       -0.3844
      9 C         143.1031  132.0873  155.7632 C.3     1  UNL1        0.1133
     10 C         142.9045  133.0148  154.6011 C.3     1  UNL1        0.0466
     11 C         142.9787  134.4990  154.8050 C.3     1  UNL1        0.0749
     12 N         143.2515  135.0558  156.1709 N.3     1  UNL1       -0.2688
     13 C         143.4501  134.1283  157.3329 C.3     1  UNL1        0.0749
     14 C         143.3759  132.6440  157.1290 C.3     1  UNL1        0.0466
     15 H         142.8470  130.4137  154.6255 H       1  UNL1        0.2103
     16 O         138.9283  139.3902  159.2969 O.3     1  UNL1       -0.4313
     17 C         138.8130  139.2634  160.7871 C.ar    1  UNL1        0.2628
     18 N         139.0997  138.0305  161.5919 N.ar    1  UNL1       -0.2050
     19 C         138.8546  138.3523  163.0363 C.ar    1  UNL1        0.0910
     20 C         138.9738  137.5265  164.2828 C.ar    1  UNL1        0.0197
     21 C         138.6548  138.1326  165.6173 C.ar    1  UNL1        0.0016
     22 C         138.2166  139.5644  165.7052 C.ar    1  UNL1        0.0006
     23 C         138.0973  140.3902  164.4587 C.ar    1  UNL1        0.0081
     24 C         138.4163  139.7841  163.1243 C.ar    1  UNL1        0.0515
     25 S         138.3906  140.3472  161.7342 S.2     1  UNL1       -0.0283
@<TRIPOS>BOND
     1     8     9    1
     2     9    10    1
     3    10    11    1
     4    11    12    1
     5    12     7    1
     6     7     1    1
     7     1     2   ar
     8     2     3   ar
     9     3     4   ar
    10     4    16    1
    11    16    17    1
    12    17    18   ar
    13    18    19   ar
    14    19    20   ar
    15    20    21   ar
    16    21    22   ar
    17    22    23   ar
    18    23    24   ar
    19    24    25   ar
    20     4     5   ar
    21     5     6   ar
    22    12    13    1
    23    13    14    1
    24    14     9    1
    25     6     1   ar
    26    25    17   ar
    27    24    19   ar
    28     8    15    1
@<TRIPOS>MOLECULE
*****
 25 28 0 0 0
SMALL
GASTEIGER

@<TRIPOS>ATOM
      1 C         141.0660  145.3228  159.7165 C.ar    1  UNL1       -0.0059
      2 C         139.9809  146.1743  160.3058 C.ar    1  UNL1        0.0002
      3 C         139.6509  146.0651  161.7651 C.ar    1  UNL1        0.0373
      4 C         140.4060  145.1043  162.6349 C.ar    1  UNL1        0.1477
      5 C         141.4912  144.2528  162.0455 C.ar    1  UNL1        0.0373
      6 C         141.8212  144.3620  160.5863 C.ar    1  UNL1        0.0002
      7 C         141.3960  145.4321  158.2573 C.3     1  UNL1        0.0992
      8 O         137.0158  145.1866  154.1643 O.3     1  UNL1       -0.3844
      9 C         138.1108  145.2479  155.1875 C.3     1  UNL1        0.1133
     10 C         138.8109  146.5463  155.4599 C.3     1  UNL1        0.0466
     11 C         139.9060  146.6077  156.4832 C.3     1  UNL1        0.0749
     12 N         140.3010  145.3707  157.2341 N.3     1  UNL1       -0.2688
     13 C         139.6010  144.0724  156.9617 C.3     1  UNL1        0.0749
     14 C         138.5059  144.0109  155.9385 C.3     1  UNL1        0.0466
     15 H         136.8871  146.0658  153.7753 H       1  UNL1        0.2103
     16 O         140.0761  144.9950  164.0940 O.3     1  UNL1       -0.4313
     17 C         139.7467  143.6587  164.6905 C.ar    1  UNL1        0.2628
     18 N         138.8032  142.6446  164.1149 N.ar    1  UNL1       -0.2050
     19 C         138.7765  141.4610  165.0359 C.ar    1  UNL1        0.0910
     20 C         138.0278  140.1624  164.9800 C.ar    1  UNL1        0.0197
     21 C         138.2061  139.1464  166.0690 C.ar    1  UNL1        0.0016
     22 C         139.1332  139.4290  167.2138 C.ar    1  UNL1        0.0006
     23 C         139.8818  140.7275  167.2698 C.ar    1  UNL1        0.0081
     24 C         139.7035  141.7435  166.1808 C.ar    1  UNL1        0.0515
     25 S         140.3032  143.1018  165.9673 S.2     1  UNL1       -0.0283
@<TRIPOS>BOND
     1     8     9    1
     2     9    10    1
     3    10    11    1
     4    11    12    1
     5    12     7    1
     6     7     1    1
     7     1     2   ar
     8     2     3   ar
     9     3     4   ar
    10     4    16    1
    11    16    17    1
    12    17    18   ar
    13    18    19   ar
    14    19    20   ar
    15    20    21   ar
    16    21    22   ar
    17    22    23   ar
    18    23    24   ar
    19    24    25   ar
    20     4     5   ar
    21     5     6   ar
    22    12    13    1
    23    13    14    1
    24    14     9    1
    25     6     1   ar
    26    25    17   ar
    27    24    19   ar
    28     8    15    1
