@<TRIPOS>MOLECULE
*****
 37 41 0 0 0
SMALL
GASTEIGER

@<TRIPOS>ATOM
      1 C         143.7347  137.6381  166.8429 C.3     1  UNL1        0.0323
      2 C         142.9521  138.9110  166.7120 C.ar    1  UNL1       -0.0060
      3 C         142.4274  139.7437  167.8439 C.ar    1  UNL1        0.0438
      4 C         141.7078  140.9221  167.2577 C.ar    1  UNL1        0.0435
      5 N         141.7878  140.8177  165.7635 N.ar    1  UNL1       -0.3137
      6 C         142.5568  139.5749  165.4262 C.ar    1  UNL1        0.0372
      7 C         143.1400  138.6455  164.4034 C.3     1  UNL1        0.0452
      8 C         143.3810  138.2787  162.9691 C.3     1  UNL1        0.0235
      9 C         143.2152  138.5727  161.5075 C.3     1  UNL1        0.0725
     10 N         142.6872  139.4488  160.4104 N.3     1  UNL1       -0.2724
     11 C         143.2704  138.5194  159.3876 C.3     1  UNL1        0.0721
     12 C         143.1046  138.8135  157.9261 C.3     1  UNL1        0.0174
     13 C         142.3558  140.0369  157.4874 C.3     1  UNL1        0.0029
     14 C         141.7726  140.9663  158.5102 C.3     1  UNL1        0.0177
     15 C         141.9384  140.6722  159.9717 C.3     1  UNL1        0.0753
     16 C         141.1693  141.9151  160.3090 C.3     1  UNL1        0.0838
     17 C         140.8102  142.5209  158.9846 C.3     1  UNL1        0.0226
     18 N         140.5862  142.8445  161.3319 N.pl3   1  UNL1       -0.3327
     19 C         140.3452  143.2113  162.7663 C.ar    1  UNL1        0.0504
     20 C         140.5109  142.9172  164.2278 C.ar    1  UNL1        0.0319
     21 C         141.0390  142.0412  165.3248 C.ar    1  UNL1        0.0646
     22 C         140.2672  143.2867  165.7643 C.ar    1  UNL1        0.0177
     23 C         139.6063  144.3735  164.9693 C.ar    1  UNL1        0.0072
     24 C         139.6453  144.3358  163.4702 C.ar    1  UNL1        0.0663
     25 C         141.0727  141.9380  168.1604 C.3     1  UNL1        0.0446
     26 C         141.1571  141.7755  169.6491 C.3     1  UNL1        0.0128
     27 C         140.9689  142.0561  171.1105 C.3     1  UNL1        0.0008
     28 C         140.3722  143.0513  169.5705 C.3     1  UNL1        0.0008
     29 C         141.8767  140.5971  170.2353 C.3     1  UNL1        0.0695
     30 C         142.5118  139.5812  169.3327 C.2     1  UNL1        0.1739
     31 O         143.2314  138.4029  169.9189 O.2     1  UNL1       -0.2913
     32 H         140.1524  143.5578  160.8102 H       1  UNL1        0.1468
     33 C         138.9843  145.4226  162.6753 C.2     1  UNL1        0.2439
     34 N         139.7993  146.5632  162.1419 N.am    1  UNL1       -0.3253
     35 O         137.5082  145.3687  162.4138 O.2     1  UNL1       -0.2703
     36 H         140.7681  146.5986  162.3136 H       1  UNL1        0.1453
     37 H         139.3655  147.2766  161.6202 H       1  UNL1        0.1453
@<TRIPOS>BOND
     1     1     2    1
     2     2     3   ar
     3     3     4   ar
     4     4     5   ar
     5     5     6   ar
     6     6     7    1
     7     7     8    1
     8     8     9    1
     9     9    10    1
    10    10    11    1
    11    11    12    1
    12    12    13    1
    13    13    14    1
    14    15    14    1
    15    15    16    1
    16    16    17    1
    17    16    18    1
    18    18    19    1
    19    19    20   ar
    20    20    21   ar
    21    21    22   ar
    22    22    23   ar
    23    23    24   ar
    24    24    33    1
    25    33    34   am
    26    33    35    2
    27     4    25    1
    28    25    26    1
    29    26    27    1
    30    26    28    1
    31    26    29    1
    32    29    30    1
    33    30    31    2
    34     6     2   ar
    35    15    10    1
    36    24    19   ar
    37    30     3    1
    38    21     5    1
    39    18    32    1
    40    34    36    1
    41    34    37    1
@<TRIPOS>MOLECULE
*****
 37 41 0 0 0
SMALL
GASTEIGER

@<TRIPOS>ATOM
      1 C         137.5778  137.9155  166.6138 C.3     1  UNL1        0.0323
      2 C         138.5645  139.0397  166.5023 C.ar    1  UNL1       -0.0060
      3 C         139.0210  139.9265  167.6226 C.ar    1  UNL1        0.0438
      4 C         140.0067  140.9094  167.0636 C.ar    1  UNL1        0.0435
      5 N         140.1593  140.6301  165.5978 N.ar    1  UNL1       -0.3137
      6 C         139.2681  139.4746  165.2508 C.ar    1  UNL1        0.0372
      7 C         138.7212  138.5147  164.2362 C.3     1  UNL1        0.0452
      8 C         138.6654  138.0078  162.8256 C.3     1  UNL1        0.0235
      9 C         139.1154  138.0894  161.3970 C.3     1  UNL1        0.0725
     10 N         139.9509  138.7379  160.3333 N.3     1  UNL1       -0.2724
     11 C         139.4040  137.7781  159.3186 C.3     1  UNL1        0.0721
     12 C         139.8541  137.8598  157.8901 C.3     1  UNL1        0.0174
     13 C         140.8510  138.9014  157.4762 C.3     1  UNL1        0.0029
     14 C         141.3979  139.8612  158.4909 C.3     1  UNL1        0.0177
     15 C         140.9478  139.7795  159.9194 C.3     1  UNL1        0.0753
     16 C         141.8391  140.9350  160.2664 C.3     1  UNL1        0.0838
     17 C         142.5045  141.3131  158.9763 C.3     1  UNL1        0.0226
     18 N         142.3859  141.8949  161.2811 N.pl3   1  UNL1       -0.3327
     19 C         142.4418  142.4019  162.6917 C.ar    1  UNL1        0.0504
     20 C         141.9917  142.3202  164.1202 C.ar    1  UNL1        0.0319
     21 C         141.1563  141.6717  165.1839 C.ar    1  UNL1        0.0646
     22 C         142.0337  142.8422  165.6311 C.ar    1  UNL1        0.0177
     23 C         142.9822  143.7171  164.8662 C.ar    1  UNL1        0.0072
     24 C         143.1862  143.4969  163.3965 C.ar    1  UNL1        0.0663
     25 C         140.6379  141.9318  167.9616 C.3     1  UNL1        0.0446
     26 C         140.2834  141.9714  169.4186 C.3     1  UNL1        0.0128
     27 C         140.2696  142.4045  170.8546 C.3     1  UNL1        0.0008
     28 C         141.2642  143.1046  169.3583 C.3     1  UNL1        0.0008
     29 C         139.2978  140.9885  169.9776 C.3     1  UNL1        0.0695
     30 C         138.6666  139.9661  169.0796 C.2     1  UNL1        0.1739
     31 O         137.6810  138.9832  169.6386 O.2     1  UNL1       -0.2913
     32 H         143.0084  142.4691  160.7791 H       1  UNL1        0.1468
     33 C         144.1347  144.3718  162.6317 C.2     1  UNL1        0.2439
     34 N         144.2552  145.8270  162.9749 N.am    1  UNL1       -0.3253
     35 O         144.9627  143.7914  161.5237 O.2     1  UNL1       -0.2703
     36 H         143.7118  146.2079  163.7021 H       1  UNL1        0.1453
     37 H         144.8777  146.4012  162.4729 H       1  UNL1        0.1453
@<TRIPOS>BOND
     1     1     2    1
     2     2     3   ar
     3     3     4   ar
     4     4     5   ar
     5     5     6   ar
     6     6     7    1
     7     7     8    1
     8     8     9    1
     9     9    10    1
    10    10    11    1
    11    11    12    1
    12    12    13    1
    13    13    14    1
    14    15    14    1
    15    15    16    1
    16    16    17    1
    17    16    18    1
    18    18    19    1
    19    19    20   ar
    20    20    21   ar
    21    21    22   ar
    22    22    23   ar
    23    23    24   ar
    24    24    33    1
    25    33    34   am
    26    33    35    2
    27     4    25    1
    28    25    26    1
    29    26    27    1
    30    26    28    1
    31    26    29    1
    32    29    30    1
    33    30    31    2
    34     6     2   ar
    35    15    10    1
    36    24    19   ar
    37    30     3    1
    38    21     5    1
    39    18    32    1
    40    34    36    1
    41    34    37    1
@<TRIPOS>MOLECULE
*****
 37 41 0 0 0
SMALL
GASTEIGER

@<TRIPOS>ATOM
      1 C         144.9877  143.3989  166.1590 C.3     1  UNL1        0.0323
      2 C         143.7216  142.6270  165.9331 C.ar    1  UNL1       -0.0060
      3 C         142.7872  142.1345  166.9981 C.ar    1  UNL1        0.0438
      4 C         141.6556  141.4153  166.3256 C.ar    1  UNL1        0.0435
      5 N         141.8906  141.4633  164.8449 N.ar    1  UNL1       -0.3137
      6 C         143.1674  142.2122  164.6023 C.ar    1  UNL1        0.0372
      7 C         144.1893  142.7643  163.6532 C.3     1  UNL1        0.0452
      8 C         144.6824  142.9717  162.2518 C.3     1  UNL1        0.0235
      9 C         144.5147  142.7788  160.7737 C.3     1  UNL1        0.0725
     10 N         143.7310  142.2374  159.6150 N.3     1  UNL1       -0.2724
     11 C         144.7529  142.7895  158.6659 C.3     1  UNL1        0.0721
     12 C         144.5851  142.5966  157.1878 C.3     1  UNL1        0.0174
     13 C         143.3954  141.8517  156.6589 C.3     1  UNL1        0.0029
     14 C         142.3736  141.2995  157.6081 C.3     1  UNL1        0.0177
     15 C         142.5413  141.4924  159.0861 C.3     1  UNL1        0.0753
     16 C         141.2645  140.7435  159.3287 C.3     1  UNL1        0.0838
     17 C         140.7720  140.3634  157.9639 C.3     1  UNL1        0.0226
     18 N         140.2426  140.1914  160.2780 N.pl3   1  UNL1       -0.3327
     19 C         139.7495  139.9840  161.6793 C.ar    1  UNL1        0.0504
     20 C         139.9173  140.1768  163.1573 C.ar    1  UNL1        0.0319
     21 C         140.7009  140.7183  164.3160 C.ar    1  UNL1        0.0646
     22 C         139.4126  139.9689  164.6603 C.ar    1  UNL1        0.0177
     23 C         138.3911  139.3030  163.7867 C.ar    1  UNL1        0.0072
     24 C         138.5596  139.3105  162.2962 C.ar    1  UNL1        0.0663
     25 C         140.5574  140.8096  167.1485 C.3     1  UNL1        0.0446
     26 C         140.5908  140.9231  168.6438 C.3     1  UNL1        0.0128
     27 C         140.1818  140.7682  170.0786 C.3     1  UNL1        0.0008
     28 C         139.3172  140.1501  168.4697 C.3     1  UNL1        0.0008
     29 C         141.7223  141.6423  169.3163 C.3     1  UNL1        0.0695
     30 C         142.8206  142.2481  168.4934 C.2     1  UNL1        0.1739
     31 O         143.9521  142.9672  169.1659 O.2     1  UNL1       -0.2913
     32 H         139.5722  139.7543  159.7046 H       1  UNL1        0.1468
     33 C         137.5381  138.6446  161.4226 C.2     1  UNL1        0.2439
     34 N         137.1294  137.2270  161.6934 N.am    1  UNL1       -0.3253
     35 O         136.9253  139.3963  160.2783 O.2     1  UNL1       -0.2703
     36 H         137.5316  136.7336  162.4445 H       1  UNL1        0.1453
     37 H         136.4590  136.7899  161.1201 H       1  UNL1        0.1453
@<TRIPOS>BOND
     1     1     2    1
     2     2     3   ar
     3     3     4   ar
     4     4     5   ar
     5     5     6   ar
     6     6     7    1
     7     7     8    1
     8     8     9    1
     9     9    10    1
    10    10    11    1
    11    11    12    1
    12    12    13    1
    13    13    14    1
    14    15    14    1
    15    15    16    1
    16    16    17    1
    17    16    18    1
    18    18    19    1
    19    19    20   ar
    20    20    21   ar
    21    21    22   ar
    22    22    23   ar
    23    23    24   ar
    24    24    33    1
    25    33    34   am
    26    33    35    2
    27     4    25    1
    28    25    26    1
    29    26    27    1
    30    26    28    1
    31    26    29    1
    32    29    30    1
    33    30    31    2
    34     6     2   ar
    35    15    10    1
    36    24    19   ar
    37    30     3    1
    38    21     5    1
    39    18    32    1
    40    34    36    1
    41    34    37    1
@<TRIPOS>MOLECULE
*****
 37 41 0 0 0
SMALL
GASTEIGER

@<TRIPOS>ATOM
      1 C         142.9496  136.9189  158.1504 C.3     1  UNL1        0.0323
      2 C         142.7526  138.4046  158.2137 C.ar    1  UNL1       -0.0060
      3 C         143.2220  139.4004  157.1950 C.ar    1  UNL1        0.0438
      4 C         142.8111  140.7665  157.6586 C.ar    1  UNL1        0.0435
      5 N         142.0877  140.6150  158.9638 N.ar    1  UNL1       -0.3137
      6 C         142.0515  139.1553  159.3070 C.ar    1  UNL1        0.0372
      7 C         141.6458  138.0486  160.2346 C.3     1  UNL1        0.0452
      8 C         140.9792  137.5914  161.4981 C.3     1  UNL1        0.0235
      9 C         140.2303  137.9064  162.7591 C.3     1  UNL1        0.0725
     10 N         139.5998  138.9090  163.6796 N.3     1  UNL1       -0.2724
     11 C         139.1941  137.8023  164.6072 C.3     1  UNL1        0.0721
     12 C         138.4452  138.1172  165.8681 C.3     1  UNL1        0.0174
     13 C         138.1021  139.5389  166.2014 C.3     1  UNL1        0.0029
     14 C         138.5079  140.6456  165.2738 C.3     1  UNL1        0.0177
     15 C         139.2567  140.3307  164.0129 C.3     1  UNL1        0.0753
     16 C         139.2929  141.7904  163.6698 C.3     1  UNL1        0.0838
     17 C         138.5789  142.4725  164.7989 C.3     1  UNL1        0.0226
     18 N         139.6987  142.8971  162.7421 N.pl3   1  UNL1       -0.3327
     19 C         140.3653  143.3543  161.4785 C.ar    1  UNL1        0.0504
     20 C         141.1141  143.0393  160.2176 C.ar    1  UNL1        0.0319
     21 C         141.7446  142.0367  159.2971 C.ar    1  UNL1        0.0646
     22 C         141.8307  143.5015  158.8649 C.ar    1  UNL1        0.0177
     23 C         141.3267  144.7564  159.5140 C.ar    1  UNL1        0.0072
     24 C         140.5940  144.6828  160.8208 C.ar    1  UNL1        0.0663
     25 C         143.1488  141.9721  156.8322 C.3     1  UNL1        0.0446
     26 C         143.8973  141.8114  155.5423 C.3     1  UNL1        0.0128
     27 C         144.5862  142.1683  154.2586 C.3     1  UNL1        0.0008
     28 C         143.7257  143.3014  155.5600 C.3     1  UNL1        0.0008
     29 C         144.3082  140.4453  155.0787 C.3     1  UNL1        0.0695
     30 C         143.9706  139.2398  155.9051 C.2     1  UNL1        0.1739
     31 O         144.3815  137.8738  155.4415 O.2     1  UNL1       -0.2913
     32 H         139.3679  143.7208  163.1680 H       1  UNL1        0.1468
     33 C         140.0901  145.9378  161.4697 C.2     1  UNL1        0.2439
     34 N         140.6208  146.3545  162.8094 N.am    1  UNL1       -0.3253
     35 O         139.0554  146.7759  160.7790 O.2     1  UNL1       -0.2703
     36 H         141.2999  145.8044  163.2626 H       1  UNL1        0.1453
     37 H         140.2901  147.1782  163.2353 H       1  UNL1        0.1453
@<TRIPOS>BOND
     1     1     2    1
     2     2     3   ar
     3     3     4   ar
     4     4     5   ar
     5     5     6   ar
     6     6     7    1
     7     7     8    1
     8     8     9    1
     9     9    10    1
    10    10    11    1
    11    11    12    1
    12    12    13    1
    13    13    14    1
    14    15    14    1
    15    15    16    1
    16    16    17    1
    17    16    18    1
    18    18    19    1
    19    19    20   ar
    20    20    21   ar
    21    21    22   ar
    22    22    23   ar
    23    23    24   ar
    24    24    33    1
    25    33    34   am
    26    33    35    2
    27     4    25    1
    28    25    26    1
    29    26    27    1
    30    26    28    1
    31    26    29    1
    32    29    30    1
    33    30    31    2
    34     6     2   ar
    35    15    10    1
    36    24    19   ar
    37    30     3    1
    38    21     5    1
    39    18    32    1
    40    34    36    1
    41    34    37    1
@<TRIPOS>MOLECULE
*****
 37 41 0 0 0
SMALL
GASTEIGER

@<TRIPOS>ATOM
      1 C         141.3096  137.6012  157.9685 C.3     1  UNL1        0.0323
      2 C         142.0460  138.7589  158.5748 C.ar    1  UNL1       -0.0060
      3 C         143.0800  139.6023  157.8896 C.ar    1  UNL1        0.0438
      4 C         143.5507  140.6411  158.8641 C.ar    1  UNL1        0.0435
      5 N         142.8077  140.4396  160.1514 N.ar    1  UNL1       -0.3137
      6 C         141.8777  139.2764  159.9726 C.ar    1  UNL1        0.0372
      7 C         140.8327  138.3520  160.5236 C.3     1  UNL1        0.0452
      8 C         139.9528  137.9142  161.6568 C.3     1  UNL1        0.0235
      9 C         139.4736  138.0803  163.0685 C.3     1  UNL1        0.0725
     10 N         139.5236  138.8058  164.3804 N.3     1  UNL1       -0.2724
     11 C         138.4787  137.8814  164.9314 C.3     1  UNL1        0.0721
     12 C         137.9995  138.0475  166.3430 C.3     1  UNL1        0.0174
     13 C         138.5654  139.1380  167.2037 C.3     1  UNL1        0.0029
     14 C         139.6103  140.0623  166.6527 C.3     1  UNL1        0.0177
     15 C         140.0894  139.8962  165.2411 C.3     1  UNL1        0.0753
     16 C         141.0194  141.0594  165.4198 C.3     1  UNL1        0.0838
     17 C         140.7973  141.5210  166.8297 C.3     1  UNL1        0.0226
     18 N         142.0644  141.9838  164.8688 N.pl3   1  UNL1       -0.3327
     19 C         142.9444  142.4216  163.7356 C.ar    1  UNL1        0.0504
     20 C         143.4235  142.2555  162.3240 C.ar    1  UNL1        0.0319
     21 C         143.3735  141.5300  161.0121 C.ar    1  UNL1        0.0646
     22 C         144.3514  142.7029  161.1011 C.ar    1  UNL1        0.0177
     23 C         144.6702  143.6429  162.2257 C.ar    1  UNL1        0.0072
     24 C         143.9667  143.5022  163.5430 C.ar    1  UNL1        0.0663
     25 C         144.5952  141.6362  158.4532 C.3     1  UNL1        0.0446
     26 C         145.1690  141.5926  157.0679 C.3     1  UNL1        0.0128
     27 C         146.0073  141.9533  155.8776 C.3     1  UNL1        0.0008
     28 C         145.9308  142.7566  157.6289 C.3     1  UNL1        0.0008
     29 C         144.6982  140.5539  156.0935 C.3     1  UNL1        0.0695
     30 C         143.6537  139.5587  156.5044 C.2     1  UNL1        0.1739
     31 O         143.1830  138.5201  155.5300 O.2     1  UNL1       -0.2913
     32 H         142.2736  142.6008  165.6069 H       1  UNL1        0.1468
     33 C         144.2855  144.4423  164.6676 C.2     1  UNL1        0.2439
     34 N         144.9284  143.9232  165.9195 N.am    1  UNL1       -0.3253
     35 O         143.9613  145.9013  164.5403 O.2     1  UNL1       -0.2703
     36 H         145.1411  142.9656  166.0031 H       1  UNL1        0.1453
     37 H         145.1376  144.5401  166.6577 H       1  UNL1        0.1453
@<TRIPOS>BOND
     1     1     2    1
     2     2     3   ar
     3     3     4   ar
     4     4     5   ar
     5     5     6   ar
     6     6     7    1
     7     7     8    1
     8     8     9    1
     9     9    10    1
    10    10    11    1
    11    11    12    1
    12    12    13    1
    13    13    14    1
    14    15    14    1
    15    15    16    1
    16    16    17    1
    17    16    18    1
    18    18    19    1
    19    19    20   ar
    20    20    21   ar
    21    21    22   ar
    22    22    23   ar
    23    23    24   ar
    24    24    33    1
    25    33    34   am
    26    33    35    2
    27     4    25    1
    28    25    26    1
    29    26    27    1
    30    26    28    1
    31    26    29    1
    32    29    30    1
    33    30    31    2
    34     6     2   ar
    35    15    10    1
    36    24    19   ar
    37    30     3    1
    38    21     5    1
    39    18    32    1
    40    34    36    1
    41    34    37    1
@<TRIPOS>MOLECULE
*****
 37 41 0 0 0
SMALL
GASTEIGER

@<TRIPOS>ATOM
      1 C         144.7772  141.6103  161.5350 C.3     1  UNL1        0.0323
      2 C         143.7367  142.5352  160.9765 C.ar    1  UNL1       -0.0060
      3 C         142.6125  143.1644  161.7449 C.ar    1  UNL1        0.0438
      4 C         141.8187  144.0113  160.7948 C.ar    1  UNL1        0.0435
      5 N         142.4522  143.9056  159.4393 N.ar    1  UNL1       -0.3137
      6 C         143.6376  142.9933  159.5516 C.ar    1  UNL1        0.0372
      7 C         144.8046  142.2959  158.9179 C.3     1  UNL1        0.0452
      8 C         145.6406  142.0001  157.7082 C.3     1  UNL1        0.0235
      9 C         145.9217  142.1853  156.2464 C.3     1  UNL1        0.0725
     10 N         145.5724  142.8019  154.9243 N.3     1  UNL1       -0.2724
     11 C         146.7394  142.1044  154.2907 C.3     1  UNL1        0.0721
     12 C         147.0204  142.2896  152.8290 C.3     1  UNL1        0.0174
     13 C         146.1343  143.1723  152.0009 C.3     1  UNL1        0.0029
     14 C         144.9673  143.8698  152.6345 C.3     1  UNL1        0.0177
     15 C         144.6863  143.6846  154.0962 C.3     1  UNL1        0.0753
     16 C         143.5010  144.5968  153.9840 C.3     1  UNL1        0.0838
     17 C         143.4655  145.0119  152.5430 C.3     1  UNL1        0.0226
     18 N         142.3339  145.2943  154.6176 N.pl3   1  UNL1       -0.3327
     19 C         141.4978  145.5900  155.8274 C.ar    1  UNL1        0.0504
     20 C         141.2168  145.4048  157.2892 C.ar    1  UNL1        0.0319
     21 C         141.5661  144.7883  158.6112 C.ar    1  UNL1        0.0646
     22 C         140.3413  145.7045  158.5932 C.ar    1  UNL1        0.0177
     23 C         139.7019  146.4806  157.4801 C.ar    1  UNL1        0.0072
     24 C         140.2801  146.4233  156.0972 C.ar    1  UNL1        0.0663
     25 C         140.6214  144.7695  161.2869 C.3     1  UNL1        0.0446
     26 C         140.2181  144.6806  162.7288 C.3     1  UNL1        0.0128
     27 C         139.4459  144.9141  163.9934 C.3     1  UNL1        0.0008
     28 C         139.1561  145.6086  162.2180 C.3     1  UNL1        0.0008
     29 C         141.0119  143.8337  163.6789 C.3     1  UNL1        0.0695
     30 C         142.2092  143.0756  163.1869 C.2     1  UNL1        0.1739
     31 O         143.0029  142.2287  164.1369 O.2     1  UNL1       -0.2913
     32 H         141.9141  145.8037  153.8872 H       1  UNL1        0.1468
     33 C         139.6406  147.1994  154.9843 C.2     1  UNL1        0.2439
     34 N         138.1474  147.2146  154.8421 N.am    1  UNL1       -0.3253
     35 O         140.4943  147.9602  154.0135 O.2     1  UNL1       -0.2703
     36 H         137.5872  146.7153  155.4793 H       1  UNL1        0.1453
     37 H         137.7277  147.7240  154.1116 H       1  UNL1        0.1453
@<TRIPOS>BOND
     1     1     2    1
     2     2     3   ar
     3     3     4   ar
     4     4     5   ar
     5     5     6   ar
     6     6     7    1
     7     7     8    1
     8     8     9    1
     9     9    10    1
    10    10    11    1
    11    11    12    1
    12    12    13    1
    13    13    14    1
    14    15    14    1
    15    15    16    1
    16    16    17    1
    17    16    18    1
    18    18    19    1
    19    19    20   ar
    20    20    21   ar
    21    21    22   ar
    22    22    23   ar
    23    23    24   ar
    24    24    33    1
    25    33    34   am
    26    33    35    2
    27     4    25    1
    28    25    26    1
    29    26    27    1
    30    26    28    1
    31    26    29    1
    32    29    30    1
    33    30    31    2
    34     6     2   ar
    35    15    10    1
    36    24    19   ar
    37    30     3    1
    38    21     5    1
    39    18    32    1
    40    34    36    1
    41    34    37    1
@<TRIPOS>MOLECULE
*****
 37 41 0 0 0
SMALL
GASTEIGER

@<TRIPOS>ATOM
      1 C         143.7560  139.5942  163.1462 C.3     1  UNL1        0.0323
      2 C         142.5870  140.2393  162.4627 C.ar    1  UNL1       -0.0060
      3 C         141.8248  141.4326  162.9577 C.ar    1  UNL1        0.0438
      4 C         140.7417  141.7352  161.9651 C.ar    1  UNL1        0.0435
      5 N         140.8344  140.7290  160.8565 N.ar    1  UNL1       -0.3137
      6 C         141.9749  139.8045  161.1640 C.ar    1  UNL1        0.0372
      7 C         142.8261  138.6250  160.7977 C.3     1  UNL1        0.0452
      8 C         143.1599  137.5066  159.8555 C.3     1  UNL1        0.0235
      9 C         142.8870  136.7489  158.5899 C.3     1  UNL1        0.0725
     10 N         142.0804  136.5550  157.3403 N.3     1  UNL1       -0.2724
     11 C         142.9316  135.3755  156.9739 C.3     1  UNL1        0.0721
     12 C         142.6586  134.6179  155.7084 C.3     1  UNL1        0.0174
     13 C         141.5344  135.0398  154.8093 C.3     1  UNL1        0.0029
     14 C         140.6833  136.2192  155.1757 C.3     1  UNL1        0.0177
     15 C         140.9562  136.9768  156.4412 C.3     1  UNL1        0.0753
     16 C         139.8158  137.9014  156.1337 C.3     1  UNL1        0.0838
     17 C         139.2569  137.4089  154.8317 C.3     1  UNL1        0.0226
     18 N         138.9646  139.0809  156.5001 N.pl3   1  UNL1       -0.3327
     19 C         138.6307  140.1993  157.4423 C.ar    1  UNL1        0.0504
     20 C         138.9037  140.9569  158.7078 C.ar    1  UNL1        0.0319
     21 C         139.7103  141.1508  159.9575 C.ar    1  UNL1        0.0646
     22 C         138.5676  142.1416  159.7279 C.ar    1  UNL1        0.0177
     23 C         137.5682  142.2595  158.6155 C.ar    1  UNL1        0.0072
     24 C         137.5998  141.2884  157.4728 C.ar    1  UNL1        0.0663
     25 C         139.8108  142.8881  162.1989 C.3     1  UNL1        0.0446
     26 C         139.9630  143.7382  163.4253 C.3     1  UNL1        0.0128
     27 C         139.7084  144.8244  164.4278 C.3     1  UNL1        0.0008
     28 C         138.7915  144.4181  162.7809 C.3     1  UNL1        0.0008
     29 C         141.0461  143.4356  164.4179 C.3     1  UNL1        0.0695
     30 C         141.9770  142.2827  164.1841 C.2     1  UNL1        0.1739
     31 O         143.0601  141.9802  165.1767 O.2     1  UNL1       -0.2913
     32 H         138.3086  139.1584  155.7701 H       1  UNL1        0.1468
     33 C         136.6003  141.4064  156.3605 C.2     1  UNL1        0.2439
     34 N         136.1510  142.7602  155.8965 N.am    1  UNL1       -0.3253
     35 O         136.0502  140.1706  155.7122 O.2     1  UNL1       -0.2703
     36 H         136.5120  143.5713  156.3220 H       1  UNL1        0.1453
     37 H         135.4950  142.8377  155.1665 H       1  UNL1        0.1453
@<TRIPOS>BOND
     1     1     2    1
     2     2     3   ar
     3     3     4   ar
     4     4     5   ar
     5     5     6   ar
     6     6     7    1
     7     7     8    1
     8     8     9    1
     9     9    10    1
    10    10    11    1
    11    11    12    1
    12    12    13    1
    13    13    14    1
    14    15    14    1
    15    15    16    1
    16    16    17    1
    17    16    18    1
    18    18    19    1
    19    19    20   ar
    20    20    21   ar
    21    21    22   ar
    22    22    23   ar
    23    23    24   ar
    24    24    33    1
    25    33    34   am
    26    33    35    2
    27     4    25    1
    28    25    26    1
    29    26    27    1
    30    26    28    1
    31    26    29    1
    32    29    30    1
    33    30    31    2
    34     6     2   ar
    35    15    10    1
    36    24    19   ar
    37    30     3    1
    38    21     5    1
    39    18    32    1
    40    34    36    1
    41    34    37    1
@<TRIPOS>MOLECULE
*****
 37 41 0 0 0
SMALL
GASTEIGER

@<TRIPOS>ATOM
      1 C         141.5118  137.7200  163.9249 C.3     1  UNL1        0.0323
      2 C         141.3247  139.1354  163.4651 C.ar    1  UNL1       -0.0060
      3 C         140.8956  140.2908  164.3201 C.ar    1  UNL1        0.0438
      4 C         140.8395  141.5134  163.4530 C.ar    1  UNL1        0.0435
      5 N         141.2339  141.1138  162.0620 N.ar    1  UNL1       -0.3137
      6 C         141.5337  139.6441  162.0695 C.ar    1  UNL1        0.0372
      7 C         141.9520  138.4000  161.3435 C.3     1  UNL1        0.0452
      8 C         142.3767  137.7147  160.0786 C.3     1  UNL1        0.0235
      9 C         142.6940  137.7719  158.6136 C.3     1  UNL1        0.0725
     10 N         142.8188  138.5563  157.3412 N.3     1  UNL1       -0.2724
     11 C         143.2371  137.3122  156.6152 C.3     1  UNL1        0.0721
     12 C         143.5544  137.3695  155.1503 C.3     1  UNL1        0.0174
     13 C         143.4533  138.6709  154.4114 C.3     1  UNL1        0.0029
     14 C         143.0350  139.9151  155.1373 C.3     1  UNL1        0.0177
     15 C         142.7177  139.8578  156.6022 C.3     1  UNL1        0.0753
     16 C         142.4179  141.3274  156.5948 C.3     1  UNL1        0.0838
     17 C         142.6467  141.7632  155.1778 C.3     1  UNL1        0.0226
     18 N         141.9995  142.5716  157.3208 N.pl3   1  UNL1       -0.3327
     19 C         141.5749  143.2569  158.5858 C.ar    1  UNL1        0.0504
     20 C         141.2576  143.1996  160.0507 C.ar    1  UNL1        0.0319
     21 C         141.1328  142.4152  161.3231 C.ar    1  UNL1        0.0646
     22 C         140.8067  143.9071  161.4119 C.ar    1  UNL1        0.0177
     23 C         140.8191  144.9868  160.3707 C.ar    1  UNL1        0.0072
     24 C         141.2031  144.6617  158.9576 C.ar    1  UNL1        0.0663
     25 C         140.4365  142.8328  164.0420 C.3     1  UNL1        0.0446
     26 C         140.0896  142.9295  165.4981 C.3     1  UNL1        0.0128
     27 C         139.6730  143.5223  166.8115 C.3     1  UNL1        0.0008
     28 C         139.8888  144.3580  165.0872 C.3     1  UNL1        0.0008
     29 C         140.1458  141.7068  166.3653 C.3     1  UNL1        0.0695
     30 C         140.5488  140.3874  165.7762 C.2     1  UNL1        0.1739
     31 O         140.6049  139.1648  166.6433 O.2     1  UNL1       -0.2913
     32 H         142.0076  143.2803  156.6375 H       1  UNL1        0.1468
     33 C         141.2154  145.7415  157.9165 C.2     1  UNL1        0.2439
     34 N         142.5141  146.3632  157.4961 N.am    1  UNL1       -0.3253
     35 O         139.9289  146.1994  157.2957 O.2     1  UNL1       -0.2703
     36 H         143.3584  146.0626  157.9035 H       1  UNL1        0.1453
     37 H         142.5222  147.0719  156.8128 H       1  UNL1        0.1453
@<TRIPOS>BOND
     1     1     2    1
     2     2     3   ar
     3     3     4   ar
     4     4     5   ar
     5     5     6   ar
     6     6     7    1
     7     7     8    1
     8     8     9    1
     9     9    10    1
    10    10    11    1
    11    11    12    1
    12    12    13    1
    13    13    14    1
    14    15    14    1
    15    15    16    1
    16    16    17    1
    17    16    18    1
    18    18    19    1
    19    19    20   ar
    20    20    21   ar
    21    21    22   ar
    22    22    23   ar
    23    23    24   ar
    24    24    33    1
    25    33    34   am
    26    33    35    2
    27     4    25    1
    28    25    26    1
    29    26    27    1
    30    26    28    1
    31    26    29    1
    32    29    30    1
    33    30    31    2
    34     6     2   ar
    35    15    10    1
    36    24    19   ar
    37    30     3    1
    38    21     5    1
    39    18    32    1
    40    34    36    1
    41    34    37    1
@<TRIPOS>MOLECULE
*****
 37 41 0 0 0
SMALL
GASTEIGER

@<TRIPOS>ATOM
      1 C         141.9707  144.6563  163.8006 C.3     1  UNL1        0.0323
      2 C         141.7473  143.3365  163.1237 C.ar    1  UNL1       -0.0060
      3 C         141.9464  141.9841  163.7412 C.ar    1  UNL1        0.0438
      4 C         141.6078  140.9492  162.7095 C.ar    1  UNL1        0.0435
      5 N         141.1993  141.6620  161.4545 N.ar    1  UNL1       -0.3137
      6 C         141.2855  143.1374  161.7105 C.ar    1  UNL1        0.0372
      7 C         141.1315  144.5503  161.2308 C.3     1  UNL1        0.0452
      8 C         140.7784  145.5219  160.1440 C.3     1  UNL1        0.0235
      9 C         140.3209  145.7921  158.7412 C.3     1  UNL1        0.0725
     10 N         139.8816  145.2883  157.3984 N.3     1  UNL1       -0.2724
     11 C         139.7275  146.7011  156.9187 C.3     1  UNL1        0.0721
     12 C         139.2700  146.9712  155.5160 C.3     1  UNL1        0.0174
     13 C         138.9666  145.8284  154.5929 C.3     1  UNL1        0.0029
     14 C         139.1206  144.4156  155.0726 C.3     1  UNL1        0.0177
     15 C         139.5781  144.1455  156.4753 C.3     1  UNL1        0.0753
     16 C         139.4919  142.6701  156.2194 C.3     1  UNL1        0.0838
     17 C         139.0276  142.5490  154.7982 C.3     1  UNL1        0.0226
     18 N         139.6459  141.2572  156.6991 N.pl3   1  UNL1       -0.3327
     19 C         139.9990  140.2855  157.7859 C.ar    1  UNL1        0.0504
     20 C         140.4565  140.0154  159.1887 C.ar    1  UNL1        0.0319
     21 C         140.8958  140.5192  160.5315 C.ar    1  UNL1        0.0646
     22 C         140.8382  138.9999  160.3633 C.ar    1  UNL1        0.0177
     23 C         140.4537  138.1476  159.1904 C.ar    1  UNL1        0.0072
     24 C         140.0341  138.7904  157.9017 C.ar    1  UNL1        0.0663
     25 C         141.7151  139.4913  163.0463 C.3     1  UNL1        0.0446
     26 C         142.1610  139.0685  164.4146 C.3     1  UNL1        0.0128
     27 C         142.5344  138.1789  165.5631 C.3     1  UNL1        0.0008
     28 C         141.9520  137.7246  163.7819 C.3     1  UNL1        0.0008
     29 C         142.4997  140.1034  165.4462 C.3     1  UNL1        0.0695
     30 C         142.3924  141.5613  165.1095 C.2     1  UNL1        0.1739
     31 O         142.7311  142.5961  166.1410 O.2     1  UNL1       -0.2913
     32 H         139.3936  140.6978  155.9293 H       1  UNL1        0.1468
     33 C         139.6496  137.9381  156.7288 C.2     1  UNL1        0.2439
     34 N         140.4082  136.6773  156.4372 N.am    1  UNL1       -0.3253
     35 O         138.5066  138.3466  155.8475 O.2     1  UNL1       -0.2703
     36 H         141.1584  136.4092  157.0157 H       1  UNL1        0.1453
     37 H         140.1558  136.1178  155.6674 H       1  UNL1        0.1453
@<TRIPOS>BOND
     1     1     2    1
     2     2     3   ar
     3     3     4   ar
     4     4     5   ar
     5     5     6   ar
     6     6     7    1
     7     7     8    1
     8     8     9    1
     9     9    10    1
    10    10    11    1
    11    11    12    1
    12    12    13    1
    13    13    14    1
    14    15    14    1
    15    15    16    1
    16    16    17    1
    17    16    18    1
    18    18    19    1
    19    19    20   ar
    20    20    21   ar
    21    21    22   ar
    22    22    23   ar
    23    23    24   ar
    24    24    33    1
    25    33    34   am
    26    33    35    2
    27     4    25    1
    28    25    26    1
    29    26    27    1
    30    26    28    1
    31    26    29    1
    32    29    30    1
    33    30    31    2
    34     6     2   ar
    35    15    10    1
    36    24    19   ar
    37    30     3    1
    38    21     5    1
    39    18    32    1
    40    34    36    1
    41    34    37    1
