@<TRIPOS>MOLECULE
*****
 29 32 0 0 0
SMALL
GASTEIGER

@<TRIPOS>ATOM
      1 C         141.4445  142.0664  166.1347 C.2     1  UNL1        0.0020
      2 C         140.9785  142.5267  167.4843 C.2     1  UNL1        0.0143
      3 C         141.2866  141.7086  168.7033 C.3     1  UNL1        0.1659
      4 C         140.5125  142.9868  168.8337 C.3     1  UNL1        0.0472
      5 C         140.0466  143.4469  170.1832 C.3     1  UNL1        0.0211
      6 C         140.3547  142.6289  171.4022 C.3     1  UNL1        0.0688
      7 N         141.1287  141.3508  171.2717 N.3     1  UNL1       -0.2943
      8 C         141.5947  140.8906  169.9222 C.3     1  UNL1        0.1134
      9 O         142.0607  140.4304  168.5727 O.3     1  UNL1       -0.4772
     10 C         142.5267  139.9703  167.2233 C.ar    1  UNL1        0.1386
     11 C         143.3008  138.6920  167.0927 C.ar    1  UNL1        0.0369
     12 C         143.7667  138.2319  165.7432 C.ar    1  UNL1        0.0031
     13 C         143.4586  139.0499  164.5243 C.ar    1  UNL1        0.0002
     14 C         142.6845  140.3281  164.6547 C.ar    1  UNL1        0.0030
     15 C         142.2185  140.7883  166.0043 C.ar    1  UNL1        0.0338
     16 H         140.5381  140.6091  171.6480 H       1  UNL1        0.1234
     17 C         140.5201  144.5205  162.4778 C.ar    1  UNL1        0.0536
     18 C         141.7671  144.7904  163.2666 C.ar    1  UNL1        0.0045
     19 C         142.0752  143.9723  164.4856 C.ar    1  UNL1        0.0001
     20 C         141.1364  142.8845  164.9158 C.ar    1  UNL1       -0.0001
     21 C         139.8894  142.6145  164.1269 C.ar    1  UNL1        0.0001
     22 C         139.5812  143.4326  162.9079 C.ar    1  UNL1        0.0045
     23 N         140.8333  144.9834  159.9406 N.am    1  UNL1       -0.2761
     24 C         140.2120  145.3385  161.2588 C.2     1  UNL1        0.2490
     25 O         139.2826  146.5117  161.3581 O.2     1  UNL1       -0.2699
     26 C         141.5052  145.8554  157.5872 C.3     1  UNL1        0.0233
     27 C         140.5252  145.8014  158.7216 C.3     1  UNL1        0.0938
     28 C         141.7628  143.8102  159.8412 C.3     1  UNL1        0.0938
     29 C         141.2293  142.4607  159.4614 C.3     1  UNL1        0.0233
@<TRIPOS>BOND
     1    26    27    1
     2    27    23    1
     3    23    28    1
     4    28    29    1
     5    23    24   am
     6    24    25    2
     7    24    17    1
     8    17    18   ar
     9    18    19   ar
    10    19    20   ar
    11    20     1    1
    12     1     2    2
    13     2     3    1
    14     3     4    1
    15     4     5    1
    16     5     6    1
    17     6     7    1
    18     7     8    1
    19     3     9    1
    20     9    10    1
    21    10    11   ar
    22    11    12   ar
    23    12    13   ar
    24    13    14   ar
    25    14    15   ar
    26    20    21   ar
    27    21    22   ar
    28    22    17   ar
    29    15     1    1
    30     8     3    1
    31    15    10   ar
    32     7    16    1
@<TRIPOS>MOLECULE
*****
 29 32 0 0 0
SMALL
GASTEIGER

@<TRIPOS>ATOM
      1 C         139.7324  141.8387  165.7322 C.2     1  UNL1        0.0020
      2 C         140.0608  142.3423  167.1065 C.2     1  UNL1        0.0143
      3 C         140.0113  141.4083  168.2792 C.3     1  UNL1        0.1659
      4 C         140.3891  142.8458  168.4808 C.3     1  UNL1        0.0472
      5 C         140.7175  143.3494  169.8550 C.3     1  UNL1        0.0211
      6 C         140.6680  142.4154  171.0277 C.3     1  UNL1        0.0688
      7 N         140.2902  140.9778  170.8261 N.3     1  UNL1       -0.2943
      8 C         139.9619  140.4743  169.4519 C.3     1  UNL1        0.1134
      9 O         139.6335  139.9707  168.0776 O.3     1  UNL1       -0.4772
     10 C         139.3052  139.4671  166.7033 C.ar    1  UNL1        0.1386
     11 C         138.9274  138.0295  166.5017 C.ar    1  UNL1        0.0369
     12 C         138.5990  137.5260  165.1274 C.ar    1  UNL1        0.0031
     13 C         138.6485  138.4600  163.9548 C.ar    1  UNL1        0.0002
     14 C         139.0263  139.8975  164.1563 C.ar    1  UNL1        0.0030
     15 C         139.3546  140.4011  165.5306 C.ar    1  UNL1        0.0338
     16 H         139.4698  140.8047  171.4069 H       1  UNL1        0.1234
     17 C         139.8808  144.6407  162.2142 C.ar    1  UNL1        0.0536
     18 C         138.5583  144.2293  162.7901 C.ar    1  UNL1        0.0045
     19 C         138.5088  143.2953  163.9628 C.ar    1  UNL1        0.0001
     20 C         139.7819  142.7727  164.5595 C.ar    1  UNL1       -0.0001
     21 C         141.1045  143.1841  163.9836 C.ar    1  UNL1        0.0001
     22 C         141.1539  144.1181  162.8110 C.ar    1  UNL1        0.0045
     23 N         140.2352  145.0439  159.6722 N.am    1  UNL1       -0.2761
     24 C         139.9302  145.5747  161.0415 C.2     1  UNL1        0.2490
     25 O         139.6747  147.0397  161.2382 O.2     1  UNL1       -0.2699
     26 C         141.4450  145.9289  157.5501 C.3     1  UNL1        0.0233
     27 C         140.2847  145.9779  158.4995 C.3     1  UNL1        0.0938
     28 C         140.4907  143.5789  159.4755 C.3     1  UNL1        0.0938
     29 C         139.3469  142.6483  159.2009 C.3     1  UNL1        0.0233
@<TRIPOS>BOND
     1    26    27    1
     2    27    23    1
     3    23    28    1
     4    28    29    1
     5    23    24   am
     6    24    25    2
     7    24    17    1
     8    17    18   ar
     9    18    19   ar
    10    19    20   ar
    11    20     1    1
    12     1     2    2
    13     2     3    1
    14     3     4    1
    15     4     5    1
    16     5     6    1
    17     6     7    1
    18     7     8    1
    19     3     9    1
    20     9    10    1
    21    10    11   ar
    22    11    12   ar
    23    12    13   ar
    24    13    14   ar
    25    14    15   ar
    26    20    21   ar
    27    21    22   ar
    28    22    17   ar
    29    15     1    1
    30     8     3    1
    31    15    10   ar
    32     7    16    1
@<TRIPOS>MOLECULE
*****
 29 32 0 0 0
SMALL
GASTEIGER

@<TRIPOS>ATOM
      1 C         141.4786  140.9175  166.3341 C.2     1  UNL1        0.0020
      2 C         142.1114  141.5803  167.5216 C.2     1  UNL1        0.0143
      3 C         141.4806  141.4524  168.8765 C.3     1  UNL1        0.1659
      4 C         142.7442  142.2431  168.7092 C.3     1  UNL1        0.0472
      5 C         143.3769  142.9059  169.8967 C.3     1  UNL1        0.0211
      6 C         142.7461  142.7779  171.2516 C.3     1  UNL1        0.0688
      7 N         141.4825  141.9872  171.4189 N.3     1  UNL1       -0.2943
      8 C         140.8498  141.3244  170.2314 C.3     1  UNL1        0.1134
      9 O         140.2170  140.6616  169.0438 O.3     1  UNL1       -0.4772
     10 C         139.5842  139.9988  167.8563 C.ar    1  UNL1        0.1386
     11 C         138.3205  139.2080  168.0236 C.ar    1  UNL1        0.0369
     12 C         137.6878  138.5452  166.8361 C.ar    1  UNL1        0.0031
     13 C         138.3186  138.6731  165.4812 C.ar    1  UNL1        0.0002
     14 C         139.5822  139.4639  165.3139 C.ar    1  UNL1        0.0030
     15 C         140.2150  140.1267  166.5014 C.ar    1  UNL1        0.0338
     16 H         140.7861  142.6236  171.8068 H       1  UNL1        0.1234
     17 C         143.3710  141.3013  162.2694 C.ar    1  UNL1        0.0536
     18 C         143.9230  140.3240  163.2645 C.ar    1  UNL1        0.0045
     19 C         143.2922  140.1960  164.6193 C.ar    1  UNL1        0.0001
     20 C         142.1094  141.0454  164.9792 C.ar    1  UNL1       -0.0001
     21 C         141.5574  142.0228  163.9841 C.ar    1  UNL1        0.0001
     22 C         142.1882  142.1507  162.6293 C.ar    1  UNL1        0.0045
     23 N         143.6007  140.4977  159.8095 N.am    1  UNL1       -0.2761
     24 C         144.0019  141.4293  160.9146 C.2     1  UNL1        0.2490
     25 O         145.0339  142.4888  160.6648 O.2     1  UNL1       -0.2699
     26 C         143.5051  140.1303  157.2393 C.3     1  UNL1        0.0233
     27 C         144.2315  140.6257  158.4546 C.3     1  UNL1        0.0938
     28 C         142.5686  139.4382  160.0592 C.3     1  UNL1        0.0938
     29 C         142.9953  138.0384  160.3883 C.3     1  UNL1        0.0233
@<TRIPOS>BOND
     1    26    27    1
     2    27    23    1
     3    23    28    1
     4    28    29    1
     5    23    24   am
     6    24    25    2
     7    24    17    1
     8    17    18   ar
     9    18    19   ar
    10    19    20   ar
    11    20     1    1
    12     1     2    2
    13     2     3    1
    14     3     4    1
    15     4     5    1
    16     5     6    1
    17     6     7    1
    18     7     8    1
    19     3     9    1
    20     9    10    1
    21    10    11   ar
    22    11    12   ar
    23    12    13   ar
    24    13    14   ar
    25    14    15   ar
    26    20    21   ar
    27    21    22   ar
    28    22    17   ar
    29    15     1    1
    30     8     3    1
    31    15    10   ar
    32     7    16    1
@<TRIPOS>MOLECULE
*****
 29 32 0 0 0
SMALL
GASTEIGER

@<TRIPOS>ATOM
      1 C         142.3667  142.6541  161.9130 C.2     1  UNL1        0.0020
      2 C         143.1625  142.2697  160.7009 C.2     1  UNL1        0.0143
      3 C         143.0260  143.0591  159.4328 C.3     1  UNL1        0.1659
      4 C         143.9582  141.8854  159.4889 C.3     1  UNL1        0.0472
      5 C         144.7540  141.5010  158.2769 C.3     1  UNL1        0.0211
      6 C         144.6174  142.2904  157.0087 C.3     1  UNL1        0.0688
      7 N         143.6852  143.4641  156.9526 N.3     1  UNL1       -0.2943
      8 C         142.8894  143.8485  158.1646 C.3     1  UNL1        0.1134
      9 O         142.0936  144.2329  159.3766 O.3     1  UNL1       -0.4772
     10 C         141.2979  144.6172  160.5886 C.ar    1  UNL1        0.1386
     11 C         140.3655  145.7910  160.5325 C.ar    1  UNL1        0.0369
     12 C         139.5698  146.1754  161.7445 C.ar    1  UNL1        0.0031
     13 C         139.7063  145.3860  163.0127 C.ar    1  UNL1        0.0002
     14 C         140.6386  144.2123  163.0689 C.ar    1  UNL1        0.0030
     15 C         141.4344  143.8279  161.8568 C.ar    1  UNL1        0.0338
     16 H         143.0143  143.2720  156.2086 H       1  UNL1        0.1234
     17 C         142.7763  140.2860  165.7175 C.ar    1  UNL1        0.0536
     18 C         143.6740  141.4609  165.4650 C.ar    1  UNL1        0.0045
     19 C         143.5375  142.2502  164.1968 C.ar    1  UNL1        0.0001
     20 C         142.5032  141.8648  163.1811 C.ar    1  UNL1       -0.0001
     21 C         141.6054  140.6899  163.4336 C.ar    1  UNL1        0.0001
     22 C         141.7419  139.9005  164.7018 C.ar    1  UNL1        0.0045
     23 N         142.1785  139.9282  168.2204 N.am    1  UNL1       -0.2761
     24 C         142.9128  139.4967  166.9857 C.2     1  UNL1        0.2490
     25 O         143.7836  138.2757  167.0190 O.2     1  UNL1       -0.2699
     26 C         142.9919  139.7468  170.6813 C.3     1  UNL1        0.0233
     27 C         142.3151  139.1388  169.4886 C.3     1  UNL1        0.0938
     28 C         141.3077  141.1491  168.1870 C.3     1  UNL1        0.0938
     29 C         139.9848  141.1463  168.8940 C.3     1  UNL1        0.0233
@<TRIPOS>BOND
     1    26    27    1
     2    27    23    1
     3    23    28    1
     4    28    29    1
     5    23    24   am
     6    24    25    2
     7    24    17    1
     8    17    18   ar
     9    18    19   ar
    10    19    20   ar
    11    20     1    1
    12     1     2    2
    13     2     3    1
    14     3     4    1
    15     4     5    1
    16     5     6    1
    17     6     7    1
    18     7     8    1
    19     3     9    1
    20     9    10    1
    21    10    11   ar
    22    11    12   ar
    23    12    13   ar
    24    13    14   ar
    25    14    15   ar
    26    20    21   ar
    27    21    22   ar
    28    22    17   ar
    29    15     1    1
    30     8     3    1
    31    15    10   ar
    32     7    16    1
@<TRIPOS>MOLECULE
*****
 29 32 0 0 0
SMALL
GASTEIGER

@<TRIPOS>ATOM
      1 C         141.9146  140.2960  163.6606 C.2     1  UNL1        0.0020
      2 C         140.7361  139.5792  164.2500 C.2     1  UNL1        0.0143
      3 C         140.3438  139.8277  165.6763 C.3     1  UNL1        0.1659
      4 C         139.5576  138.8625  164.8395 C.3     1  UNL1        0.0472
      5 C         138.3792  138.1458  165.4290 C.3     1  UNL1        0.0211
      6 C         137.9868  138.3943  166.8553 C.3     1  UNL1        0.0688
      7 N         138.7730  139.3595  167.6921 N.3     1  UNL1       -0.2943
      8 C         139.9515  140.0762  167.1026 C.3     1  UNL1        0.1134
      9 O         141.1300  140.7929  166.5132 O.3     1  UNL1       -0.4772
     10 C         142.3085  141.5096  165.9237 C.ar    1  UNL1        0.1386
     11 C         143.0947  142.4749  166.7606 C.ar    1  UNL1        0.0369
     12 C         144.2732  143.1916  166.1711 C.ar    1  UNL1        0.0031
     13 C         144.6655  142.9431  164.7448 C.ar    1  UNL1        0.0002
     14 C         143.8793  141.9779  163.9080 C.ar    1  UNL1        0.0030
     15 C         142.7008  141.2611  164.4974 C.ar    1  UNL1        0.0338
     16 H         139.1185  138.8375  168.4974 H       1  UNL1        0.1234
     17 C         143.0916  139.5505  159.3817 C.ar    1  UNL1        0.0536
     18 C         143.6984  138.7292  160.4804 C.ar    1  UNL1        0.0045
     19 C         143.3060  138.9777  161.9067 C.ar    1  UNL1        0.0001
     20 C         142.3070  140.0475  162.2343 C.ar    1  UNL1       -0.0001
     21 C         141.7002  140.8688  161.1355 C.ar    1  UNL1        0.0001
     22 C         142.0925  140.6203  159.7092 C.ar    1  UNL1        0.0045
     23 N         142.6992  138.3351  157.1192 N.am    1  UNL1       -0.2761
     24 C         143.4839  139.3020  157.9554 C.2     1  UNL1        0.2490
     25 O         144.6611  140.0204  157.3653 O.2     1  UNL1       -0.2699
     26 C         144.1322  137.0556  155.3700 C.3     1  UNL1        0.0233
     27 C         143.0915  138.0866  155.6929 C.3     1  UNL1        0.0938
     28 C         141.5220  137.6166  157.7094 C.3     1  UNL1        0.0938
     29 C         140.1356  138.1487  157.4981 C.3     1  UNL1        0.0233
@<TRIPOS>BOND
     1    26    27    1
     2    27    23    1
     3    23    28    1
     4    28    29    1
     5    23    24   am
     6    24    25    2
     7    24    17    1
     8    17    18   ar
     9    18    19   ar
    10    19    20   ar
    11    20     1    1
    12     1     2    2
    13     2     3    1
    14     3     4    1
    15     4     5    1
    16     5     6    1
    17     6     7    1
    18     7     8    1
    19     3     9    1
    20     9    10    1
    21    10    11   ar
    22    11    12   ar
    23    12    13   ar
    24    13    14   ar
    25    14    15   ar
    26    20    21   ar
    27    21    22   ar
    28    22    17   ar
    29    15     1    1
    30     8     3    1
    31    15    10   ar
    32     7    16    1
@<TRIPOS>MOLECULE
*****
 29 32 0 0 0
SMALL
GASTEIGER

@<TRIPOS>ATOM
      1 C         140.4620  142.3035  161.7302 C.2     1  UNL1        0.0020
      2 C         141.9230  141.9887  161.8588 C.2     1  UNL1        0.0143
      3 C         142.6776  142.4173  163.0823 C.3     1  UNL1        0.1659
      4 C         143.3839  141.6740  161.9875 C.3     1  UNL1        0.0472
      5 C         144.8448  141.3593  162.1161 C.3     1  UNL1        0.0211
      6 C         145.5995  141.7878  163.3396 C.3     1  UNL1        0.0688
      7 N         144.8932  142.5311  164.4344 N.3     1  UNL1       -0.2943
      8 C         143.4322  142.8458  164.3058 C.3     1  UNL1        0.1134
      9 O         141.9712  143.1606  164.1771 O.3     1  UNL1       -0.4772
     10 C         140.5103  143.4753  164.0485 C.ar    1  UNL1        0.1386
     11 C         139.8039  144.2186  165.1433 C.ar    1  UNL1        0.0369
     12 C         138.3430  144.5333  165.0147 C.ar    1  UNL1        0.0031
     13 C         137.5884  144.1047  163.7912 C.ar    1  UNL1        0.0002
     14 C         138.2947  143.3615  162.6964 C.ar    1  UNL1        0.0030
     15 C         139.7557  143.0467  162.8250 C.ar    1  UNL1        0.0338
     16 H         145.3776  143.4218  164.5456 H       1  UNL1        0.1234
     17 C         138.1981  141.0178  158.0598 C.ar    1  UNL1        0.0536
     18 C         138.6795  142.4327  158.1868 C.ar    1  UNL1        0.0045
     19 C         139.4341  142.8613  159.4102 C.ar    1  UNL1        0.0001
     20 C         139.7073  141.8749  160.5067 C.ar    1  UNL1       -0.0001
     21 C         139.2259  140.4599  160.3798 C.ar    1  UNL1        0.0001
     22 C         138.4713  140.0313  159.1563 C.ar    1  UNL1        0.0045
     23 N         138.1880  140.1147  155.6238 N.am    1  UNL1       -0.2761
     24 C         137.4434  140.5893  156.8363 C.2     1  UNL1        0.2490
     25 O         135.9441  140.6353  156.8254 O.2     1  UNL1       -0.2699
     26 C         136.9679  138.2666  154.2652 C.3     1  UNL1        0.0233
     27 C         137.4334  139.6861  154.4003 C.3     1  UNL1        0.0938
     28 C         139.6873  140.0686  155.6347 C.3     1  UNL1        0.0938
     29 C         140.3960  138.7959  155.9922 C.3     1  UNL1        0.0233
@<TRIPOS>BOND
     1    26    27    1
     2    27    23    1
     3    23    28    1
     4    28    29    1
     5    23    24   am
     6    24    25    2
     7    24    17    1
     8    17    18   ar
     9    18    19   ar
    10    19    20   ar
    11    20     1    1
    12     1     2    2
    13     2     3    1
    14     3     4    1
    15     4     5    1
    16     5     6    1
    17     6     7    1
    18     7     8    1
    19     3     9    1
    20     9    10    1
    21    10    11   ar
    22    11    12   ar
    23    12    13   ar
    24    13    14   ar
    25    14    15   ar
    26    20    21   ar
    27    21    22   ar
    28    22    17   ar
    29    15     1    1
    30     8     3    1
    31    15    10   ar
    32     7    16    1
@<TRIPOS>MOLECULE
*****
 29 32 0 0 0
SMALL
GASTEIGER

@<TRIPOS>ATOM
      1 C         142.5049  138.8261  159.1866 C.2     1  UNL1        0.0020
      2 C         142.3972  137.7108  158.1893 C.2     1  UNL1        0.0143
      3 C         143.1294  137.7993  156.8831 C.3     1  UNL1        0.1659
      4 C         142.2895  136.5955  157.1920 C.3     1  UNL1        0.0472
      5 C         142.1818  135.4803  156.1947 C.3     1  UNL1        0.0211
      6 C         142.9140  135.5688  154.8886 C.3     1  UNL1        0.0688
      7 N         143.7539  136.7726  154.5797 N.3     1  UNL1       -0.2943
      8 C         143.8616  137.8879  155.5770 C.3     1  UNL1        0.1134
      9 O         143.9693  139.0032  156.5743 O.3     1  UNL1       -0.4772
     10 C         144.0770  140.1184  157.5715 C.ar    1  UNL1        0.1386
     11 C         144.9169  141.3223  157.2627 C.ar    1  UNL1        0.0369
     12 C         145.0246  142.4375  158.2599 C.ar    1  UNL1        0.0031
     13 C         144.2924  142.3490  159.5661 C.ar    1  UNL1        0.0002
     14 C         143.4525  141.1452  159.8750 C.ar    1  UNL1        0.0030
     15 C         143.3448  140.0299  158.8777 C.ar    1  UNL1        0.0338
     16 H         143.3810  137.1796  153.7220 H       1  UNL1        0.1234
     17 C         140.3084  138.5604  163.1051 C.ar    1  UNL1        0.0536
     18 C         139.6584  139.2182  161.9240 C.ar    1  UNL1        0.0045
     19 C         140.3906  139.3068  160.6179 C.ar    1  UNL1        0.0001
     20 C         141.7727  138.7375  160.4928 C.ar    1  UNL1       -0.0001
     21 C         142.4227  138.0797  161.6738 C.ar    1  UNL1        0.0001
     22 C         141.6906  137.9912  162.9800 C.ar    1  UNL1        0.0045
     23 N         139.6584  139.6010  165.3952 N.am    1  UNL1       -0.2761
     24 C         139.5762  138.4719  164.4112 C.2     1  UNL1        0.2490
     25 O         138.7617  137.2541  164.7334 O.2     1  UNL1       -0.2699
     26 C         139.5991  139.9479  167.9694 C.3     1  UNL1        0.0233
     27 C         138.9263  139.5125  166.7014 C.3     1  UNL1        0.0938
     28 C         140.4729  140.8188  165.0730 C.3     1  UNL1        0.0938
     29 C         139.7937  142.0770  164.6196 C.3     1  UNL1        0.0233
@<TRIPOS>BOND
     1    26    27    1
     2    27    23    1
     3    23    28    1
     4    28    29    1
     5    23    24   am
     6    24    25    2
     7    24    17    1
     8    17    18   ar
     9    18    19   ar
    10    19    20   ar
    11    20     1    1
    12     1     2    2
    13     2     3    1
    14     3     4    1
    15     4     5    1
    16     5     6    1
    17     6     7    1
    18     7     8    1
    19     3     9    1
    20     9    10    1
    21    10    11   ar
    22    11    12   ar
    23    12    13   ar
    24    13    14   ar
    25    14    15   ar
    26    20    21   ar
    27    21    22   ar
    28    22    17   ar
    29    15     1    1
    30     8     3    1
    31    15    10   ar
    32     7    16    1
@<TRIPOS>MOLECULE
*****
 29 32 0 0 0
SMALL
GASTEIGER

@<TRIPOS>ATOM
      1 C         141.8831  141.4822  161.6532 C.2     1  UNL1        0.0020
      2 C         140.5489  142.1067  161.9357 C.2     1  UNL1        0.0143
      3 C         140.3893  143.0412  163.0981 C.3     1  UNL1        0.1659
      4 C         139.2147  142.7312  162.2183 C.3     1  UNL1        0.0472
      5 C         137.8805  143.3557  162.5009 C.3     1  UNL1        0.0211
      6 C         137.7209  144.2902  163.6633 C.3     1  UNL1        0.0688
      7 N         138.8955  144.6002  164.5431 N.3     1  UNL1       -0.2943
      8 C         140.2297  143.9757  164.2605 C.3     1  UNL1        0.1134
      9 O         141.5640  143.3512  163.9780 O.3     1  UNL1       -0.4772
     10 C         142.8981  142.7267  163.6954 C.ar    1  UNL1        0.1386
     11 C         144.0728  143.0367  164.5753 C.ar    1  UNL1        0.0369
     12 C         145.4070  142.4122  164.2927 C.ar    1  UNL1        0.0031
     13 C         145.5666  141.4777  163.1303 C.ar    1  UNL1        0.0002
     14 C         144.3920  141.1677  162.2505 C.ar    1  UNL1        0.0030
     15 C         143.0577  141.7922  162.5330 C.ar    1  UNL1        0.0338
     16 H         138.6354  144.3235  165.4898 H       1  UNL1        0.1234
     17 C         142.3619  138.6786  158.1659 C.ar    1  UNL1        0.0536
     18 C         142.1805  138.1298  159.5500 C.ar    1  UNL1        0.0045
     19 C         142.0209  139.0643  160.7124 C.ar    1  UNL1        0.0001
     20 C         142.0427  140.5476  160.4907 C.ar    1  UNL1       -0.0001
     21 C         142.2242  141.0965  159.1066 C.ar    1  UNL1        0.0001
     22 C         142.3838  140.1620  157.9442 C.ar    1  UNL1        0.0045
     23 N         141.3097  137.1912  156.3138 N.am    1  UNL1       -0.2761
     24 C         142.5215  137.7441  157.0035 C.2     1  UNL1        0.2490
     25 O         143.8931  137.3625  156.5308 O.2     1  UNL1       -0.2699
     26 C         141.5582  134.7776  155.3849 C.3     1  UNL1        0.0233
     27 C         141.4693  136.2567  155.1514 C.3     1  UNL1        0.0938
     28 C         139.9382  137.5728  156.7865 C.3     1  UNL1        0.0938
     29 C         139.2294  138.7407  156.1671 C.3     1  UNL1        0.0233
@<TRIPOS>BOND
     1    26    27    1
     2    27    23    1
     3    23    28    1
     4    28    29    1
     5    23    24   am
     6    24    25    2
     7    24    17    1
     8    17    18   ar
     9    18    19   ar
    10    19    20   ar
    11    20     1    1
    12     1     2    2
    13     2     3    1
    14     3     4    1
    15     4     5    1
    16     5     6    1
    17     6     7    1
    18     7     8    1
    19     3     9    1
    20     9    10    1
    21    10    11   ar
    22    11    12   ar
    23    12    13   ar
    24    13    14   ar
    25    14    15   ar
    26    20    21   ar
    27    21    22   ar
    28    22    17   ar
    29    15     1    1
    30     8     3    1
    31    15    10   ar
    32     7    16    1
@<TRIPOS>MOLECULE
*****
 29 32 0 0 0
SMALL
GASTEIGER

@<TRIPOS>ATOM
      1 C         141.1198  141.0336  164.4682 C.2     1  UNL1        0.0020
      2 C         141.6132  140.5530  165.8008 C.2     1  UNL1        0.0143
      3 C         141.2688  141.3136  167.0469 C.3     1  UNL1        0.1659
      4 C         142.1066  140.0724  167.1333 C.3     1  UNL1        0.0472
      5 C         142.5999  139.5919  168.4658 C.3     1  UNL1        0.0211
      6 C         142.2555  140.3525  169.7119 C.3     1  UNL1        0.0688
      7 N         141.4177  141.5937  169.6255 N.3     1  UNL1       -0.2943
      8 C         140.9244  142.0743  168.2930 C.3     1  UNL1        0.1134
      9 O         140.4310  142.5549  166.9604 O.3     1  UNL1       -0.4772
     10 C         139.9376  143.0354  165.6279 C.ar    1  UNL1        0.1386
     11 C         139.0998  144.2767  165.5415 C.ar    1  UNL1        0.0369
     12 C         138.6064  144.7572  164.2089 C.ar    1  UNL1        0.0031
     13 C         138.9508  143.9966  162.9628 C.ar    1  UNL1        0.0002
     14 C         139.7886  142.7554  163.0492 C.ar    1  UNL1        0.0030
     15 C         140.2820  142.2748  164.3818 C.ar    1  UNL1        0.0338
     16 H         141.9717  142.3513  170.0250 H       1  UNL1        0.1234
     17 C         142.1530  138.7516  160.7299 C.ar    1  UNL1        0.0536
     18 C         140.9135  138.4064  161.5008 C.ar    1  UNL1        0.0045
     19 C         140.5691  139.1671  162.7469 C.ar    1  UNL1        0.0001
     20 C         141.4642  140.2729  163.2221 C.ar    1  UNL1       -0.0001
     21 C         142.7038  140.6182  162.4511 C.ar    1  UNL1        0.0001
     22 C         143.0482  139.8575  161.2050 C.ar    1  UNL1        0.0045
     23 N         141.9894  138.4616  158.1532 N.am    1  UNL1       -0.2761
     24 C         142.4975  137.9910  159.4838 C.2     1  UNL1        0.2490
     25 O         143.3500  136.7596  159.5682 O.2     1  UNL1       -0.2699
     26 C         141.4734  136.5538  156.4668 C.3     1  UNL1        0.0233
     27 C         142.3338  137.7009  156.9071 C.3     1  UNL1        0.0938
     28 C         141.1368  139.6929  158.0688 C.3     1  UNL1        0.0938
     29 C         139.6418  139.5724  158.0826 C.3     1  UNL1        0.0233
@<TRIPOS>BOND
     1    26    27    1
     2    27    23    1
     3    23    28    1
     4    28    29    1
     5    23    24   am
     6    24    25    2
     7    24    17    1
     8    17    18   ar
     9    18    19   ar
    10    19    20   ar
    11    20     1    1
    12     1     2    2
    13     2     3    1
    14     3     4    1
    15     4     5    1
    16     5     6    1
    17     6     7    1
    18     7     8    1
    19     3     9    1
    20     9    10    1
    21    10    11   ar
    22    11    12   ar
    23    12    13   ar
    24    13    14   ar
    25    14    15   ar
    26    20    21   ar
    27    21    22   ar
    28    22    17   ar
    29    15     1    1
    30     8     3    1
    31    15    10   ar
    32     7    16    1
