@<TRIPOS>MOLECULE
*****
 35 40 0 0 0
SMALL
GASTEIGER

@<TRIPOS>ATOM
      1 C         141.6140  139.9409  169.8562 C.3     1  UNL1        0.0178
      2 C         142.4205  138.9846  169.0285 C.3     1  UNL1        0.0095
      3 C         142.9960  139.4290  167.7166 C.3     1  UNL1        0.0692
      4 O         144.3534  137.2957  167.1195 O.2     1  UNL1       -0.2913
      5 C         143.4381  138.4105  166.7080 C.2     1  UNL1        0.1730
      6 C         142.9648  138.5069  165.2878 C.ar    1  UNL1        0.0342
      7 C         141.5634  138.1048  164.9354 C.ar    1  UNL1       -0.0002
      8 C         141.0901  138.2012  163.5153 C.ar    1  UNL1       -0.0082
      9 C         142.0183  138.6996  162.4476 C.ar    1  UNL1        0.0459
     10 C         143.4198  139.1017  162.8000 C.ar    1  UNL1       -0.0070
     11 C         143.8931  139.0054  164.2201 C.ar    1  UNL1       -0.0002
     12 C         144.1027  139.5526  161.5429 C.3     1  UNL1        0.0495
     13 C         143.1233  139.4291  160.4135 C.3     1  UNL1        0.1029
     14 N         141.8350  138.9020  160.9726 N.am    1  UNL1       -0.2589
     15 C         140.4300  138.5015  160.6042 C.2     1  UNL1        0.2297
     16 O         140.0999  138.6517  159.1487 O.2     1  UNL1       -0.2745
     17 C         139.3937  137.9874  161.5591 C.3     1  UNL1        0.0903
     18 C         139.7238  137.8372  163.0146 C.3     1  UNL1        0.0372
     19 C         140.1831  140.2177  169.5012 C.3     1  UNL1        0.0721
     20 N         139.7993  140.4648  168.0723 N.3     1  UNL1       -0.2727
     21 C         140.2895  141.6939  167.3658 C.3     1  UNL1        0.0725
     22 C         139.9057  141.9410  165.9370 C.3     1  UNL1        0.0234
     23 C         139.0316  140.9590  165.2146 C.3     1  UNL1        0.0464
     24 C         138.5414  139.7300  165.9211 C.3     1  UNL1        0.0234
     25 C         138.9252  139.4829  167.3500 C.3     1  UNL1        0.0725
     26 C         138.6477  141.2061  163.7857 C.ar    1  UNL1        0.1003
     27 N         137.2841  141.0092  163.1926 N.ar    1  UNL1       -0.0814
     28 O         137.3536  141.3748  161.7395 O.2     1  UNL1       -0.3536
     29 C         138.7601  141.7975  161.4346 C.ar    1  UNL1        0.1787
     30 C         139.4160  142.2639  160.1688 C.ar    1  UNL1        0.0698
     31 C         140.8716  142.6261  160.1676 C.ar    1  UNL1        0.1433
     32 F         141.5275  143.0925  158.9018 F       1  UNL1       -0.2041
     33 C         141.6714  142.5218  161.4323 C.ar    1  UNL1        0.0299
     34 C         141.0156  142.0554  162.6981 C.ar    1  UNL1        0.0067
     35 C         139.5599  141.6932  162.6993 C.ar    1  UNL1        0.0540
@<TRIPOS>BOND
     1     4     5    2
     2     5     3    1
     3     3     2    1
     4     2     1    1
     5     1    19    1
     6    19    20    1
     7    20    21    1
     8    21    22    1
     9    22    23    1
    10    23    26    1
    11    26    27   ar
    12    27    28   ar
    13    28    29   ar
    14    29    30   ar
    15    30    31   ar
    16    31    32    1
    17    31    33   ar
    18    33    34   ar
    19    34    35   ar
    20    23    24    1
    21    24    25    1
    22     5     6    1
    23     6     7   ar
    24     7     8   ar
    25     8     9   ar
    26     9    10   ar
    27    10    11   ar
    28    10    12    1
    29    12    13    1
    30    13    14    1
    31    14    15   am
    32    15    16    2
    33    15    17    1
    34    17    18    1
    35    25    20    1
    36    11     6   ar
    37    35    26   ar
    38    18     8    1
    39    35    29   ar
    40    14     9    1
@<TRIPOS>MOLECULE
*****
 35 40 0 0 0
SMALL
GASTEIGER

@<TRIPOS>ATOM
      1 C         138.1301  139.4594  160.3004 C.3     1  UNL1        0.0178
      2 C         139.1697  139.9305  159.3271 C.3     1  UNL1        0.0095
      3 C         139.6342  141.3564  159.3575 C.3     1  UNL1        0.0692
      4 O         138.0630  142.8769  160.7609 O.2     1  UNL1       -0.2913
      5 C         139.3881  142.1996  160.5735 C.2     1  UNL1        0.1730
      6 C         140.4673  142.3653  161.6022 C.ar    1  UNL1        0.0342
      7 C         140.9776  143.7347  161.9398 C.ar    1  UNL1       -0.0002
      8 C         142.0567  143.9005  162.9684 C.ar    1  UNL1       -0.0082
      9 C         142.6254  142.6967  163.6594 C.ar    1  UNL1        0.0459
     10 C         142.1151  141.3272  163.3218 C.ar    1  UNL1       -0.0070
     11 C         141.0360  141.1615  162.2932 C.ar    1  UNL1       -0.0002
     12 C         142.8621  140.3340  164.1617 C.3     1  UNL1        0.0495
     13 C         143.8342  141.0897  165.0184 C.3     1  UNL1        0.1029
     14 N         143.6880  142.5500  164.7080 N.am    1  UNL1       -0.2589
     15 C         144.2102  143.9196  165.0570 C.2     1  UNL1        0.2297
     16 O         145.2869  143.9291  166.1014 O.2     1  UNL1       -0.2745
     17 C         143.7405  145.2094  164.4522 C.3     1  UNL1        0.0903
     18 C         142.6637  145.1998  163.4079 C.3     1  UNL1        0.0372
     19 C         138.4636  138.3844  161.2920 C.3     1  UNL1        0.0721
     20 N         138.5905  138.7207  162.7483 N.3     1  UNL1       -0.2727
     21 C         139.3208  137.7913  163.6718 C.3     1  UNL1        0.0725
     22 C         139.4477  138.1276  165.1281 C.3     1  UNL1        0.0234
     23 C         138.8442  139.3933  165.6609 C.3     1  UNL1        0.0464
     24 C         138.1139  140.3226  164.7374 C.3     1  UNL1        0.0234
     25 C         137.9870  139.9863  163.2811 C.3     1  UNL1        0.0725
     26 C         138.9711  139.7297  167.1172 C.ar    1  UNL1        0.1003
     27 N         138.1986  139.0997  168.2381 N.ar    1  UNL1       -0.0814
     28 O         138.6427  139.7357  169.5219 O.2     1  UNL1       -0.3536
     29 C         139.6896  140.7587  169.1945 C.ar    1  UNL1        0.1787
     30 C         140.4844  141.6933  170.0576 C.ar    1  UNL1        0.0698
     31 C         141.4821  142.6240  169.4346 C.ar    1  UNL1        0.1433
     32 F         142.2769  143.5586  170.2977 F       1  UNL1       -0.2041
     33 C         141.6850  142.6203  167.9484 C.ar    1  UNL1        0.0299
     34 C         140.8903  141.6858  167.0852 C.ar    1  UNL1        0.0067
     35 C         139.8925  140.7550  167.7083 C.ar    1  UNL1        0.0540
@<TRIPOS>BOND
     1     4     5    2
     2     5     3    1
     3     3     2    1
     4     2     1    1
     5     1    19    1
     6    19    20    1
     7    20    21    1
     8    21    22    1
     9    22    23    1
    10    23    26    1
    11    26    27   ar
    12    27    28   ar
    13    28    29   ar
    14    29    30   ar
    15    30    31   ar
    16    31    32    1
    17    31    33   ar
    18    33    34   ar
    19    34    35   ar
    20    23    24    1
    21    24    25    1
    22     5     6    1
    23     6     7   ar
    24     7     8   ar
    25     8     9   ar
    26     9    10   ar
    27    10    11   ar
    28    10    12    1
    29    12    13    1
    30    13    14    1
    31    14    15   am
    32    15    16    2
    33    15    17    1
    34    17    18    1
    35    25    20    1
    36    11     6   ar
    37    35    26   ar
    38    18     8    1
    39    35    29   ar
    40    14     9    1
@<TRIPOS>MOLECULE
*****
 35 40 0 0 0
SMALL
GASTEIGER

@<TRIPOS>ATOM
      1 C         143.0379  140.6682  170.3016 C.3     1  UNL1        0.0178
      2 C         143.1407  142.1016  169.8717 C.3     1  UNL1        0.0095
      3 C         142.8503  142.4809  168.4498 C.3     1  UNL1        0.0692
      4 O         140.4629  143.2781  169.0939 O.2     1  UNL1       -0.2913
      5 C         141.4602  142.8763  168.0480 C.2     1  UNL1        0.1730
      6 C         141.0675  142.8699  166.6003 C.ar    1  UNL1        0.0342
      7 C         139.7465  143.4419  166.1790 C.ar    1  UNL1       -0.0002
      8 C         139.3538  143.4355  164.7313 C.ar    1  UNL1       -0.0082
      9 C         140.2822  142.8570  163.7050 C.ar    1  UNL1        0.0459
     10 C         141.6033  142.2849  164.1263 C.ar    1  UNL1       -0.0070
     11 C         141.9960  142.2913  165.5739 C.ar    1  UNL1       -0.0002
     12 C         142.3057  141.7870  162.8980 C.3     1  UNL1        0.0495
     13 C         141.4187  142.0513  161.7176 C.3     1  UNL1        0.1029
     14 N         140.1682  142.7126  162.2163 N.am    1  UNL1       -0.2589
     15 C         138.8443  143.2838  161.7788 C.2     1  UNL1        0.2297
     16 O         138.5895  143.2080  160.3025 O.2     1  UNL1       -0.2745
     17 C         137.8176  143.8933  162.6867 C.3     1  UNL1        0.0903
     18 C         138.0723  143.9691  164.1630 C.3     1  UNL1        0.0372
     19 C         141.8477  139.8483  169.8999 C.3     1  UNL1        0.0721
     20 N         141.6313  139.4969  168.4578 N.3     1  UNL1       -0.2727
     21 C         140.2567  139.5811  167.8634 C.3     1  UNL1        0.0725
     22 C         140.0403  139.2297  166.4213 C.3     1  UNL1        0.0234
     23 C         141.1986  138.7941  165.5735 C.3     1  UNL1        0.0464
     24 C         142.5732  138.7100  166.1679 C.3     1  UNL1        0.0234
     25 C         142.7896  139.0614  167.6100 C.3     1  UNL1        0.0725
     26 C         140.9823  138.4427  164.1314 C.ar    1  UNL1        0.1003
     27 N         141.8724  137.5743  163.2925 N.ar    1  UNL1       -0.0814
     28 O         141.2783  137.4929  161.9176 O.2     1  UNL1       -0.3536
     29 C         140.0210  138.3108  161.9068 C.ar    1  UNL1        0.1787
     30 C         139.0190  138.5970  160.8278 C.ar    1  UNL1        0.0698
     31 C         137.8342  139.4701  161.1170 C.ar    1  UNL1        0.1433
     32 F         136.8321  139.7563  160.0380 F       1  UNL1       -0.2041
     33 C         137.6513  140.0571  162.4852 C.ar    1  UNL1        0.0299
     34 C         138.6532  139.7710  163.5642 C.ar    1  UNL1        0.0067
     35 C         139.8381  138.8978  163.2750 C.ar    1  UNL1        0.0540
@<TRIPOS>BOND
     1     4     5    2
     2     5     3    1
     3     3     2    1
     4     2     1    1
     5     1    19    1
     6    19    20    1
     7    20    21    1
     8    21    22    1
     9    22    23    1
    10    23    26    1
    11    26    27   ar
    12    27    28   ar
    13    28    29   ar
    14    29    30   ar
    15    30    31   ar
    16    31    32    1
    17    31    33   ar
    18    33    34   ar
    19    34    35   ar
    20    23    24    1
    21    24    25    1
    22     5     6    1
    23     6     7   ar
    24     7     8   ar
    25     8     9   ar
    26     9    10   ar
    27    10    11   ar
    28    10    12    1
    29    12    13    1
    30    13    14    1
    31    14    15   am
    32    15    16    2
    33    15    17    1
    34    17    18    1
    35    25    20    1
    36    11     6   ar
    37    35    26   ar
    38    18     8    1
    39    35    29   ar
    40    14     9    1
@<TRIPOS>MOLECULE
*****
 35 40 0 0 0
SMALL
GASTEIGER

@<TRIPOS>ATOM
      1 C         140.3074  144.4692  157.4276 C.3     1  UNL1        0.0178
      2 C         140.4133  145.5346  158.4781 C.3     1  UNL1        0.0095
      3 C         141.1141  145.2448  159.7723 C.3     1  UNL1        0.0692
      4 O         139.2762  146.2990  161.2759 O.2     1  UNL1       -0.2913
      5 C         140.3489  145.2725  161.0621 C.2     1  UNL1        0.1730
      6 C         140.6565  144.2738  162.1383 C.ar    1  UNL1        0.0342
      7 C         141.5495  143.1052  161.8440 C.ar    1  UNL1       -0.0002
      8 C         141.8570  142.1066  162.9201 C.ar    1  UNL1       -0.0082
      9 C         141.2715  142.2766  164.2906 C.ar    1  UNL1        0.0459
     10 C         140.3785  143.4452  164.5850 C.ar    1  UNL1       -0.0070
     11 C         140.0709  144.4439  163.5089 C.ar    1  UNL1       -0.0002
     12 C         139.9499  143.3514  166.0194 C.3     1  UNL1        0.0495
     13 C         140.5781  142.1247  166.6115 C.3     1  UNL1        0.1029
     14 N         141.3949  141.4604  165.5431 N.am    1  UNL1       -0.2589
     15 C         142.2903  140.2817  165.2616 C.2     1  UNL1        0.2297
     16 O         142.5069  139.3693  166.4324 O.2     1  UNL1       -0.2745
     17 C         142.9450  139.9819  163.9458 C.3     1  UNL1        0.0903
     18 C         142.7284  140.8943  162.7751 C.3     1  UNL1        0.0372
     19 C         139.2632  143.3989  157.5476 C.3     1  UNL1        0.0721
     20 N         139.4036  142.3276  158.5881 N.3     1  UNL1       -0.2727
     21 C         138.4099  142.2349  159.7079 C.3     1  UNL1        0.0725
     22 C         138.5503  141.1636  160.7484 C.3     1  UNL1        0.0234
     23 C         139.6843  140.1850  160.6691 C.3     1  UNL1        0.0464
     24 C         140.6780  140.2777  159.5493 C.3     1  UNL1        0.0234
     25 C         140.5377  141.3490  158.5088 C.3     1  UNL1        0.0725
     26 C         139.8248  139.1137  161.7096 C.ar    1  UNL1        0.1003
     27 N         140.5430  137.8079  161.5391 N.ar    1  UNL1       -0.0814
     28 O         140.4338  137.0472  162.8273 O.2     1  UNL1       -0.3536
     29 C         139.6481  137.8829  163.7939 C.ar    1  UNL1        0.1787
     30 C         139.2267  137.6459  165.2139 C.ar    1  UNL1        0.0698
     31 C         138.4290  138.6860  165.9430 C.ar    1  UNL1        0.1433
     32 F         138.0076  138.4491  167.3630 F       1  UNL1       -0.2041
     33 C         138.0526  139.9632  165.2522 C.ar    1  UNL1        0.0299
     34 C         138.4739  140.2002  163.8323 C.ar    1  UNL1        0.0067
     35 C         139.2717  139.1600  163.1031 C.ar    1  UNL1        0.0540
@<TRIPOS>BOND
     1     4     5    2
     2     5     3    1
     3     3     2    1
     4     2     1    1
     5     1    19    1
     6    19    20    1
     7    20    21    1
     8    21    22    1
     9    22    23    1
    10    23    26    1
    11    26    27   ar
    12    27    28   ar
    13    28    29   ar
    14    29    30   ar
    15    30    31   ar
    16    31    32    1
    17    31    33   ar
    18    33    34   ar
    19    34    35   ar
    20    23    24    1
    21    24    25    1
    22     5     6    1
    23     6     7   ar
    24     7     8   ar
    25     8     9   ar
    26     9    10   ar
    27    10    11   ar
    28    10    12    1
    29    12    13    1
    30    13    14    1
    31    14    15   am
    32    15    16    2
    33    15    17    1
    34    17    18    1
    35    25    20    1
    36    11     6   ar
    37    35    26   ar
    38    18     8    1
    39    35    29   ar
    40    14     9    1
@<TRIPOS>MOLECULE
*****
 35 40 0 0 0
SMALL
GASTEIGER

@<TRIPOS>ATOM
      1 C         142.5712  143.4011  160.3566 C.3     1  UNL1        0.0178
      2 C         141.7811  144.6262  160.7097 C.3     1  UNL1        0.0095
      3 C         141.2276  144.7885  162.0944 C.3     1  UNL1        0.0692
      4 O         138.6933  145.3451  162.2255 O.2     1  UNL1       -0.2913
      5 C         139.8191  144.3681  162.3931 C.2     1  UNL1        0.1730
      6 C         139.5363  142.9707  162.8594 C.ar    1  UNL1        0.0342
      7 C         139.5382  142.6545  164.3256 C.ar    1  UNL1       -0.0002
      8 C         139.2554  141.2572  164.7920 C.ar    1  UNL1       -0.0082
      9 C         138.9707  140.1760  163.7920 C.ar    1  UNL1        0.0459
     10 C         138.9688  140.4922  162.3257 C.ar    1  UNL1       -0.0070
     11 C         139.2516  141.8895  161.8593 C.ar    1  UNL1       -0.0002
     12 C         138.6566  139.2290  161.5795 C.3     1  UNL1        0.0495
     13 C         138.4656  138.1321  162.5846 C.3     1  UNL1        0.1029
     14 N         138.6597  138.7174  163.9520 N.am    1  UNL1       -0.2589
     15 C         138.6583  138.3854  165.4218 C.2     1  UNL1        0.2297
     16 O         138.3598  136.9496  165.7367 O.2     1  UNL1       -0.2745
     17 C         138.9245  139.3573  166.5329 C.3     1  UNL1        0.0903
     18 C         139.2231  140.7932  166.2180 C.3     1  UNL1        0.0372
     19 C         143.7633  143.0142  161.1808 C.3     1  UNL1        0.0721
     20 N         143.5709  142.3584  162.5161 N.3     1  UNL1       -0.2727
     21 C         142.8607  141.0405  162.6090 C.3     1  UNL1        0.0725
     22 C         142.6682  140.3848  163.9443 C.3     1  UNL1        0.0234
     23 C         143.1859  141.0469  165.1867 C.3     1  UNL1        0.0464
     24 C         143.8961  142.3649  165.0937 C.3     1  UNL1        0.0234
     25 C         144.0886  143.0206  163.7585 C.3     1  UNL1        0.0725
     26 C         142.9935  140.3912  166.5220 C.ar    1  UNL1        0.1003
     27 N         143.3622  138.9802  166.8726 N.ar    1  UNL1       -0.0814
     28 O         142.9952  138.7483  168.3084 O.2     1  UNL1       -0.3536
     29 C         142.3998  140.0160  168.8451 C.ar    1  UNL1        0.1787
     30 C         141.8583  140.3771  170.1967 C.ar    1  UNL1        0.0698
     31 C         141.3158  141.7534  170.4441 C.ar    1  UNL1        0.1433
     32 F         140.7744  142.1145  171.7956 F       1  UNL1       -0.2041
     33 C         141.3148  142.7688  169.3400 C.ar    1  UNL1        0.0299
     34 C         141.8562  142.4079  167.9885 C.ar    1  UNL1        0.0067
     35 C         142.3987  141.0314  167.7411 C.ar    1  UNL1        0.0540
@<TRIPOS>BOND
     1     4     5    2
     2     5     3    1
     3     3     2    1
     4     2     1    1
     5     1    19    1
     6    19    20    1
     7    20    21    1
     8    21    22    1
     9    22    23    1
    10    23    26    1
    11    26    27   ar
    12    27    28   ar
    13    28    29   ar
    14    29    30   ar
    15    30    31   ar
    16    31    32    1
    17    31    33   ar
    18    33    34   ar
    19    34    35   ar
    20    23    24    1
    21    24    25    1
    22     5     6    1
    23     6     7   ar
    24     7     8   ar
    25     8     9   ar
    26     9    10   ar
    27    10    11   ar
    28    10    12    1
    29    12    13    1
    30    13    14    1
    31    14    15   am
    32    15    16    2
    33    15    17    1
    34    17    18    1
    35    25    20    1
    36    11     6   ar
    37    35    26   ar
    38    18     8    1
    39    35    29   ar
    40    14     9    1
@<TRIPOS>MOLECULE
*****
 35 40 0 0 0
SMALL
GASTEIGER

@<TRIPOS>ATOM
      1 C         139.7165  143.5520  157.9908 C.3     1  UNL1        0.0178
      2 C         140.0783  144.9608  158.3575 C.3     1  UNL1        0.0095
      3 C         140.9261  145.2271  159.5659 C.3     1  UNL1        0.0692
      4 O         139.2281  146.6905  160.8792 O.2     1  UNL1       -0.2913
      5 C         140.2822  145.6235  160.8613 C.2     1  UNL1        0.1730
      6 C         140.6924  144.9529  162.1389 C.ar    1  UNL1        0.0342
      7 C         142.1173  144.5301  162.3401 C.ar    1  UNL1       -0.0002
      8 C         142.5275  143.8596  163.6176 C.ar    1  UNL1       -0.0082
      9 C         141.5126  143.6118  164.6939 C.ar    1  UNL1        0.0459
     10 C         140.0876  144.0345  164.4928 C.ar    1  UNL1       -0.0070
     11 C         139.6774  144.7051  163.2153 C.ar    1  UNL1       -0.0002
     12 C         139.3151  143.6609  165.7231 C.3     1  UNL1        0.0495
     13 C         140.2628  143.0072  166.6847 C.3     1  UNL1        0.1029
     14 N         141.6209  142.9768  166.0486 N.am    1  UNL1       -0.2589
     15 C         143.0488  142.5469  166.2643 C.2     1  UNL1        0.2297
     16 O         143.3095  141.8905  167.5877 O.2     1  UNL1       -0.2745
     17 C         144.1689  142.7273  165.2831 C.3     1  UNL1        0.0903
     18 C         143.9083  143.3837  163.9597 C.3     1  UNL1        0.0372
     19 C         138.6857  142.8104  158.7893 C.3     1  UNL1        0.0721
     20 N         139.0645  142.1686  160.0911 N.3     1  UNL1       -0.2727
     21 C         138.0381  142.0026  161.1722 C.3     1  UNL1        0.0725
     22 C         138.4169  141.3608  162.4739 C.3     1  UNL1        0.0234
     23 C         139.8222  140.8850  162.6946 C.3     1  UNL1        0.0464
     24 C         140.8487  141.0511  161.6135 C.3     1  UNL1        0.0234
     25 C         140.4699  141.6928  160.3118 C.3     1  UNL1        0.0725
     26 C         140.2012  140.2432  163.9964 C.ar    1  UNL1        0.1003
     27 N         139.2804  139.9813  165.1512 N.ar    1  UNL1       -0.0814
     28 O         140.0775  139.3269  166.2404 O.2     1  UNL1       -0.3536
     29 C         141.4908  139.1844  165.7588 C.ar    1  UNL1        0.1787
     30 C         142.7182  138.6121  166.4039 C.ar    1  UNL1        0.0698
     31 C         144.0219  138.6062  165.6621 C.ar    1  UNL1        0.1433
     32 F         145.2493  138.0339  166.3073 F       1  UNL1       -0.2041
     33 C         144.0984  139.1725  164.2753 C.ar    1  UNL1        0.0299
     34 C         142.8711  139.7448  163.6301 C.ar    1  UNL1        0.0067
     35 C         141.5673  139.7507  164.3719 C.ar    1  UNL1        0.0540
@<TRIPOS>BOND
     1     4     5    2
     2     5     3    1
     3     3     2    1
     4     2     1    1
     5     1    19    1
     6    19    20    1
     7    20    21    1
     8    21    22    1
     9    22    23    1
    10    23    26    1
    11    26    27   ar
    12    27    28   ar
    13    28    29   ar
    14    29    30   ar
    15    30    31   ar
    16    31    32    1
    17    31    33   ar
    18    33    34   ar
    19    34    35   ar
    20    23    24    1
    21    24    25    1
    22     5     6    1
    23     6     7   ar
    24     7     8   ar
    25     8     9   ar
    26     9    10   ar
    27    10    11   ar
    28    10    12    1
    29    12    13    1
    30    13    14    1
    31    14    15   am
    32    15    16    2
    33    15    17    1
    34    17    18    1
    35    25    20    1
    36    11     6   ar
    37    35    26   ar
    38    18     8    1
    39    35    29   ar
    40    14     9    1
@<TRIPOS>MOLECULE
*****
 35 40 0 0 0
SMALL
GASTEIGER

@<TRIPOS>ATOM
      1 C         141.3546  139.5915  169.8718 C.3     1  UNL1        0.0178
      2 C         140.1114  140.4264  169.7866 C.3     1  UNL1        0.0095
      3 C         139.5759  140.8399  168.4479 C.3     1  UNL1        0.0692
      4 O         138.0092  138.7939  168.1175 O.2     1  UNL1       -0.2913
      5 C         138.9405  139.8223  167.5475 C.2     1  UNL1        0.1730
      6 C         139.2363  139.8333  166.0769 C.ar    1  UNL1        0.0342
      7 C         139.1358  141.1131  165.3012 C.ar    1  UNL1       -0.0002
      8 C         139.4316  141.1241  163.8307 C.ar    1  UNL1       -0.0082
      9 C         139.8279  139.8552  163.1359 C.ar    1  UNL1        0.0459
     10 C         139.9284  138.5752  163.9116 C.ar    1  UNL1       -0.0070
     11 C         139.6326  138.5643  165.3821 C.ar    1  UNL1       -0.0002
     12 C         140.3394  137.4889  162.9624 C.3     1  UNL1        0.0495
     13 C         140.4930  138.0975  161.6001 C.3     1  UNL1        0.1029
     14 N         140.1768  139.5599  161.7072 N.am    1  UNL1       -0.2589
     15 C         140.0799  140.8382  160.9155 C.2     1  UNL1        0.2297
     16 O         140.4040  140.6953  159.4579 O.2     1  UNL1       -0.2745
     17 C         139.6976  142.1781  161.4709 C.3     1  UNL1        0.0903
     18 C         139.3734  142.3210  162.9285 C.3     1  UNL1        0.0372
     19 C         142.6368  140.0925  169.2759 C.3     1  UNL1        0.0721
     20 N         142.8609  140.0034  167.7954 N.3     1  UNL1       -0.2727
     21 C         142.7133  141.2264  166.9396 C.3     1  UNL1        0.0725
     22 C         142.9374  141.1373  165.4591 C.3     1  UNL1        0.0234
     23 C         143.3091  139.8251  164.8344 C.3     1  UNL1        0.0464
     24 C         143.4567  138.6021  165.6903 C.3     1  UNL1        0.0234
     25 C         143.2326  138.6913  167.1708 C.3     1  UNL1        0.0725
     26 C         143.5332  139.7359  163.3539 C.ar    1  UNL1        0.1003
     27 N         143.8499  138.4882  162.5838 N.ar    1  UNL1       -0.0814
     28 O         143.9924  138.8599  161.1376 O.2     1  UNL1       -0.3536
     29 C         143.7638  140.3371  161.0139 C.ar    1  UNL1        0.1787
     30 C         143.7773  141.2593  159.8309 C.ar    1  UNL1        0.0698
     31 C         143.5071  142.7228  160.0177 C.ar    1  UNL1        0.1433
     32 F         143.5207  143.6451  158.8347 F       1  UNL1       -0.2041
     33 C         143.2234  143.2643  161.3875 C.ar    1  UNL1        0.0299
     34 C         143.2098  142.3422  162.5705 C.ar    1  UNL1        0.0067
     35 C         143.4800  140.8785  162.3837 C.ar    1  UNL1        0.0540
@<TRIPOS>BOND
     1     4     5    2
     2     5     3    1
     3     3     2    1
     4     2     1    1
     5     1    19    1
     6    19    20    1
     7    20    21    1
     8    21    22    1
     9    22    23    1
    10    23    26    1
    11    26    27   ar
    12    27    28   ar
    13    28    29   ar
    14    29    30   ar
    15    30    31   ar
    16    31    32    1
    17    31    33   ar
    18    33    34   ar
    19    34    35   ar
    20    23    24    1
    21    24    25    1
    22     5     6    1
    23     6     7   ar
    24     7     8   ar
    25     8     9   ar
    26     9    10   ar
    27    10    11   ar
    28    10    12    1
    29    12    13    1
    30    13    14    1
    31    14    15   am
    32    15    16    2
    33    15    17    1
    34    17    18    1
    35    25    20    1
    36    11     6   ar
    37    35    26   ar
    38    18     8    1
    39    35    29   ar
    40    14     9    1
@<TRIPOS>MOLECULE
*****
 35 40 0 0 0
SMALL
GASTEIGER

@<TRIPOS>ATOM
      1 C         140.0280  140.9817  170.1813 C.3     1  UNL1        0.0178
      2 C         139.8634  142.4517  169.9323 C.3     1  UNL1        0.0095
      3 C         140.9731  143.2332  169.2938 C.3     1  UNL1        0.0692
      4 O         142.9588  141.9171  168.2570 O.2     1  UNL1       -0.2913
      5 C         141.6808  142.6845  168.0904 C.2     1  UNL1        0.1730
      6 C         141.1104  142.9032  166.7203 C.ar    1  UNL1        0.0342
      7 C         141.9372  142.5990  165.5064 C.ar    1  UNL1       -0.0002
      8 C         141.3669  142.8177  164.1364 C.ar    1  UNL1       -0.0082
      9 C         139.9697  143.3407  163.9804 C.ar    1  UNL1        0.0459
     10 C         139.1428  143.6450  165.1944 C.ar    1  UNL1       -0.0070
     11 C         139.7131  143.4262  166.5644 C.ar    1  UNL1       -0.0002
     12 C         137.8069  144.1462  164.7317 C.3     1  UNL1        0.0495
     13 C         137.8082  144.1518  163.2317 C.3     1  UNL1        0.1029
     14 N         139.1448  143.6539  162.7674 N.am    1  UNL1       -0.2589
     15 C         139.9639  143.3526  161.5391 C.2     1  UNL1        0.2297
     16 O         139.2625  143.6201  160.2405 O.2     1  UNL1       -0.2745
     17 C         141.3689  142.8273  161.5384 C.3     1  UNL1        0.0903
     18 C         142.0704  142.5599  162.8370 C.3     1  UNL1        0.0372
     19 C         139.0988  140.0018  169.5282 C.3     1  UNL1        0.0721
     20 N         139.3077  139.6109  168.0951 N.3     1  UNL1       -0.2727
     21 C         140.6888  139.6163  167.5099 C.3     1  UNL1        0.0725
     22 C         140.8976  139.2255  166.0769 C.3     1  UNL1        0.0234
     23 C         139.7254  138.8291  165.2291 C.3     1  UNL1        0.0464
     24 C         138.3443  138.8237  165.8143 C.3     1  UNL1        0.0234
     25 C         138.1355  139.2146  167.2474 C.3     1  UNL1        0.0725
     26 C         139.9342  138.4382  163.7960 C.ar    1  UNL1        0.1003
     27 N         140.8594  137.3667  163.3003 N.ar    1  UNL1       -0.0814
     28 O         140.7515  137.3164  161.8050 O.2     1  UNL1       -0.3536
     29 C         139.7595  138.3568  161.3767 C.ar    1  UNL1        0.1787
     30 C         139.2509  138.7625  160.0250 C.ar    1  UNL1        0.0698
     31 C         138.2372  139.8614  159.9040 C.ar    1  UNL1        0.1433
     32 F         137.7286  140.2671  158.5524 F       1  UNL1       -0.2041
     33 C         137.7321  140.5547  161.1345 C.ar    1  UNL1        0.0299
     34 C         138.2407  140.1491  162.4861 C.ar    1  UNL1        0.0067
     35 C         139.2544  139.0501  162.6072 C.ar    1  UNL1        0.0540
@<TRIPOS>BOND
     1     4     5    2
     2     5     3    1
     3     3     2    1
     4     2     1    1
     5     1    19    1
     6    19    20    1
     7    20    21    1
     8    21    22    1
     9    22    23    1
    10    23    26    1
    11    26    27   ar
    12    27    28   ar
    13    28    29   ar
    14    29    30   ar
    15    30    31   ar
    16    31    32    1
    17    31    33   ar
    18    33    34   ar
    19    34    35   ar
    20    23    24    1
    21    24    25    1
    22     5     6    1
    23     6     7   ar
    24     7     8   ar
    25     8     9   ar
    26     9    10   ar
    27    10    11   ar
    28    10    12    1
    29    12    13    1
    30    13    14    1
    31    14    15   am
    32    15    16    2
    33    15    17    1
    34    17    18    1
    35    25    20    1
    36    11     6   ar
    37    35    26   ar
    38    18     8    1
    39    35    29   ar
    40    14     9    1
@<TRIPOS>MOLECULE
*****
 35 40 0 0 0
SMALL
GASTEIGER

@<TRIPOS>ATOM
      1 C         142.8716  139.1285  159.1062 C.3     1  UNL1        0.0178
      2 C         141.6762  139.8584  158.5694 C.3     1  UNL1        0.0095
      3 C         140.4170  139.1063  158.2550 C.3     1  UNL1        0.0692
      4 O         137.9734  139.9239  157.9230 O.2     1  UNL1       -0.2913
      5 C         139.1089  139.5591  158.8327 C.2     1  UNL1        0.1730
      6 C         138.9362  139.6470  160.3202 C.ar    1  UNL1        0.0342
      7 C         139.0719  138.4151  161.1651 C.ar    1  UNL1       -0.0002
      8 C         138.8993  138.5030  162.6525 C.ar    1  UNL1       -0.0082
      9 C         138.5908  139.8229  163.2950 C.ar    1  UNL1        0.0459
     10 C         138.4550  141.0548  162.4501 C.ar    1  UNL1       -0.0070
     11 C         138.6276  140.9669  160.9627 C.ar    1  UNL1       -0.0002
     12 C         138.1488  142.2085  163.3585 C.3     1  UNL1        0.0495
     13 C         138.0954  141.6896  164.7648 C.3     1  UNL1        0.1029
     14 N         138.3685  140.2152  164.7256 N.am    1  UNL1       -0.2589
     15 C         138.5021  138.9859  165.5867 C.2     1  UNL1        0.2297
     16 O         138.3036  139.2274  167.0537 O.2     1  UNL1       -0.2745
     17 C         138.8067  137.6043  165.0884 C.3     1  UNL1        0.0903
     18 C         139.0053  137.3628  163.6213 C.3     1  UNL1        0.0372
     19 C         143.8160  139.8226  160.0425 C.3     1  UNL1        0.0721
     20 N         143.6545  139.6629  161.5252 N.3     1  UNL1       -0.2727
     21 C         142.6371  138.7048  162.0700 C.3     1  UNL1        0.0725
     22 C         142.4756  138.5451  163.5527 C.3     1  UNL1        0.0234
     23 C         143.3317  139.3435  164.4906 C.3     1  UNL1        0.0464
     24 C         144.3491  140.3016  163.9458 C.3     1  UNL1        0.0234
     25 C         144.5105  140.4613  162.4631 C.3     1  UNL1        0.0725
     26 C         143.1703  139.1839  165.9734 C.ar    1  UNL1        0.1003
     27 N         143.8684  138.1715  166.8323 N.ar    1  UNL1       -0.0814
     28 O         143.4121  138.3705  168.2472 O.2     1  UNL1       -0.3536
     29 C         142.4320  139.5058  168.2628 C.ar    1  UNL1        0.1787
     30 C         141.6562  140.1469  169.3752 C.ar    1  UNL1        0.0698
     31 C         140.7310  141.2906  169.0822 C.ar    1  UNL1        0.1433
     32 F         139.9552  141.9317  170.1945 F       1  UNL1       -0.2041
     33 C         140.5816  141.7933  167.6769 C.ar    1  UNL1        0.0299
     34 C         141.3573  141.1523  166.5645 C.ar    1  UNL1        0.0067
     35 C         142.2825  140.0085  166.8575 C.ar    1  UNL1        0.0540
@<TRIPOS>BOND
     1     4     5    2
     2     5     3    1
     3     3     2    1
     4     2     1    1
     5     1    19    1
     6    19    20    1
     7    20    21    1
     8    21    22    1
     9    22    23    1
    10    23    26    1
    11    26    27   ar
    12    27    28   ar
    13    28    29   ar
    14    29    30   ar
    15    30    31   ar
    16    31    32    1
    17    31    33   ar
    18    33    34   ar
    19    34    35   ar
    20    23    24    1
    21    24    25    1
    22     5     6    1
    23     6     7   ar
    24     7     8   ar
    25     8     9   ar
    26     9    10   ar
    27    10    11   ar
    28    10    12    1
    29    12    13    1
    30    13    14    1
    31    14    15   am
    32    15    16    2
    33    15    17    1
    34    17    18    1
    35    25    20    1
    36    11     6   ar
    37    35    26   ar
    38    18     8    1
    39    35    29   ar
    40    14     9    1
