@<TRIPOS>MOLECULE
*****
 33 37 0 0 0
SMALL
GASTEIGER

@<TRIPOS>ATOM
      1 N         140.8881  145.0512  163.3739 N.3     1  UNL1       -0.2726
      2 C         139.9943  144.2690  164.2901 C.3     1  UNL1        0.0724
      3 C         140.5833  143.2616  165.2325 C.3     1  UNL1        0.0214
      4 C         142.0661  143.0363  165.2588 C.3     1  UNL1        0.0216
      5 C         143.5488  142.8111  165.2851 C.3     1  UNL1        0.0058
      6 C         142.9598  143.8185  164.3427 C.3     1  UNL1        0.0201
      7 C         142.3708  144.8259  163.4002 C.3     1  UNL1        0.0724
      8 C         141.8901  142.0031  166.3319 C.ar    1  UNL1       -0.0228
      9 C         142.7969  140.8092  166.3794 C.ar    1  UNL1       -0.0043
     10 C         142.6209  139.7759  167.4525 C.ar    1  UNL1       -0.0004
     11 C         141.5382  139.9367  168.4780 C.ar    1  UNL1        0.0038
     12 C         140.6314  141.1306  168.4306 C.ar    1  UNL1        0.0711
     13 C         140.8074  142.1638  167.3575 C.ar    1  UNL1       -0.0004
     14 C         139.5486  141.2913  169.4562 C.3     1  UNL1        0.4186
     15 F         138.4659  141.4520  170.4818 F       1  UNL1       -0.1659
     16 F         139.0989  139.8831  169.2021 F       1  UNL1       -0.1659
     17 F         139.9983  142.6996  169.7103 F       1  UNL1       -0.1659
     18 C         140.2991  146.0586  162.4315 C.3     1  UNL1        0.0730
     19 C         140.0201  145.6797  161.0072 C.3     1  UNL1        0.0294
     20 C         140.7984  144.5733  160.3591 C.3     1  UNL1        0.0666
     21 S         140.1204  143.2797  160.0176 S.3     1  UNL1       -0.0756
     22 C         138.5209  141.1499  162.8410 C.ar    1  UNL1        0.2029
     23 N         137.3338  141.9293  162.3579 N.ar    1  UNL1       -0.1250
     24 N         137.7884  142.8220  161.2415 N.ar    1  UNL1       -0.1220
     25 C         139.2565  142.5943  161.0345 C.ar    1  UNL1        0.1933
     26 N         139.7092  141.5609  162.0231 N.ar    1  UNL1       -0.2860
     27 C         141.1051  141.0314  162.1682 C.3     1  UNL1        0.1341
     28 C         138.9432  137.9323  162.4971 C.3     1  UNL1        0.0556
     29 C         138.7140  138.6584  163.7895 C.ar    1  UNL1        0.1001
     30 N         138.6386  138.0329  165.1508 N.ar    1  UNL1       -0.2085
     31 C         138.3978  139.1253  166.1501 C.ar    1  UNL1        0.2849
     32 O         138.3244  140.4259  165.4065 O.2     1  UNL1       -0.4283
     33 C         138.5198  140.1373  163.9476 C.ar    1  UNL1        0.1964
@<TRIPOS>BOND
     1    28    29    1
     2    29    30   ar
     3    30    31   ar
     4    31    32   ar
     5    32    33   ar
     6    33    22    1
     7    22    23   ar
     8    23    24   ar
     9    24    25   ar
    10    25    21    1
    11    21    20    1
    12    20    19    1
    13    19    18    1
    14    18     1    1
    15     1     2    1
    16     2     3    1
    17     3     4    1
    18     4     8    1
    19     8     9   ar
    20     9    10   ar
    21    10    11   ar
    22    11    12   ar
    23    12    14    1
    24    14    15    1
    25    14    16    1
    26    14    17    1
    27    12    13   ar
    28     4     5    1
    29     5     6    1
    30     6     7    1
    31    25    26   ar
    32    26    27    1
    33    33    29   ar
    34    26    22   ar
    35     7     1    1
    36     6     4    1
    37    13     8   ar
@<TRIPOS>MOLECULE
*****
 33 37 0 0 0
SMALL
GASTEIGER

@<TRIPOS>ATOM
      1 N         142.4634  143.0315  163.1156 N.3     1  UNL1       -0.2726
      2 C         142.7569  143.5436  164.4946 C.3     1  UNL1        0.0724
      3 C         142.7489  142.6016  165.6619 C.3     1  UNL1        0.0214
      4 C         142.4473  141.1475  165.4502 C.3     1  UNL1        0.0216
      5 C         142.1456  139.6935  165.2385 C.3     1  UNL1        0.0058
      6 C         142.1537  140.6355  164.0712 C.3     1  UNL1        0.0201
      7 C         142.1618  141.5775  162.9039 C.3     1  UNL1        0.0724
      8 C         142.6121  140.8993  166.9203 C.ar    1  UNL1       -0.0228
      9 C         142.4680  139.5100  167.4671 C.ar    1  UNL1       -0.0043
     10 C         142.6329  139.2618  168.9373 C.ar    1  UNL1       -0.0004
     11 C         142.9417  140.4029  169.8605 C.ar    1  UNL1        0.0038
     12 C         143.0858  141.7922  169.3137 C.ar    1  UNL1        0.0711
     13 C         142.9210  142.0404  167.8436 C.ar    1  UNL1       -0.0004
     14 C         143.3947  142.9334  170.2370 C.3     1  UNL1        0.4186
     15 F         143.7035  144.0744  171.1603 F       1  UNL1       -0.1659
     16 F         144.8622  142.6724  170.0687 F       1  UNL1       -0.1659
     17 F         141.9271  143.1944  170.4054 F       1  UNL1       -0.1659
     18 C         142.4714  143.9734  161.9483 C.3     1  UNL1        0.0730
     19 C         141.1767  144.4686  161.3751 C.3     1  UNL1        0.0294
     20 C         140.2568  145.3058  162.2134 C.3     1  UNL1        0.0666
     21 S         138.8875  144.7998  162.5581 S.3     1  UNL1       -0.0756
     22 C         138.4126  141.0440  163.4151 C.ar    1  UNL1        0.2029
     23 N         138.0265  141.0617  161.9657 N.ar    1  UNL1       -0.1250
     24 N         138.1574  142.4707  161.4683 N.ar    1  UNL1       -0.1220
     25 C         138.6244  143.3239  162.6102 C.ar    1  UNL1        0.1933
     26 N         138.7822  142.4421  163.8134 N.ar    1  UNL1       -0.2860
     27 C         139.2307  142.8814  165.1757 C.3     1  UNL1        0.1341
     28 C         139.5132  138.0769  162.6188 C.3     1  UNL1        0.0556
     29 C         138.9326  138.4758  163.9431 C.ar    1  UNL1        0.1001
     30 N         138.7560  137.5810  165.1340 N.ar    1  UNL1       -0.2085
     31 C         138.1410  138.3918  166.2359 C.ar    1  UNL1        0.2849
     32 O         137.9375  139.7877  165.7262 O.2     1  UNL1       -0.4283
     33 C         138.4268  139.8396  164.3092 C.ar    1  UNL1        0.1964
@<TRIPOS>BOND
     1    28    29    1
     2    29    30   ar
     3    30    31   ar
     4    31    32   ar
     5    32    33   ar
     6    33    22    1
     7    22    23   ar
     8    23    24   ar
     9    24    25   ar
    10    25    21    1
    11    21    20    1
    12    20    19    1
    13    19    18    1
    14    18     1    1
    15     1     2    1
    16     2     3    1
    17     3     4    1
    18     4     8    1
    19     8     9   ar
    20     9    10   ar
    21    10    11   ar
    22    11    12   ar
    23    12    14    1
    24    14    15    1
    25    14    16    1
    26    14    17    1
    27    12    13   ar
    28     4     5    1
    29     5     6    1
    30     6     7    1
    31    25    26   ar
    32    26    27    1
    33    33    29   ar
    34    26    22   ar
    35     7     1    1
    36     6     4    1
    37    13     8   ar
@<TRIPOS>MOLECULE
*****
 33 37 0 0 0
SMALL
GASTEIGER

@<TRIPOS>ATOM
      1 N         139.7215  144.8864  162.5456 N.3     1  UNL1       -0.2726
      2 C         140.6852  144.7256  163.6838 C.3     1  UNL1        0.0724
      3 C         140.4296  143.6947  164.7429 C.3     1  UNL1        0.0214
      4 C         139.2104  142.8245  164.6639 C.3     1  UNL1        0.0216
      5 C         137.9911  141.9543  164.5849 C.3     1  UNL1        0.0058
      6 C         138.2467  142.9853  163.5257 C.3     1  UNL1        0.0201
      7 C         138.5023  144.0163  162.4666 C.3     1  UNL1        0.0724
      8 C         139.6192  142.1364  165.9325 C.ar    1  UNL1       -0.0228
      9 C         139.3148  140.6806  166.1278 C.ar    1  UNL1       -0.0043
     10 C         139.7237  139.9926  167.3965 C.ar    1  UNL1       -0.0004
     11 C         140.4368  140.7602  168.4698 C.ar    1  UNL1        0.0038
     12 C         140.7412  142.2160  168.2745 C.ar    1  UNL1        0.0711
     13 C         140.3324  142.9041  167.0059 C.ar    1  UNL1       -0.0004
     14 C         141.4544  142.9837  169.3479 C.3     1  UNL1        0.4186
     15 F         142.1675  143.7514  170.4212 F       1  UNL1       -0.1659
     16 F         142.6602  142.1090  169.1724 F       1  UNL1       -0.1659
     17 F         140.2485  143.8585  169.5235 F       1  UNL1       -0.1659
     18 C         139.9771  145.9174  161.4865 C.3     1  UNL1        0.0730
     19 C         140.0946  145.5032  160.0496 C.3     1  UNL1        0.0294
     20 C         141.4299  145.1133  159.4883 C.3     1  UNL1        0.0666
     21 S         141.8901  143.6880  159.5691 S.3     1  UNL1       -0.0756
     22 C         143.1054  141.9367  162.8129 C.ar    1  UNL1        0.2029
     23 N         144.2087  142.9276  162.5876 N.ar    1  UNL1       -0.1250
     24 N         143.8878  143.7042  161.3451 N.ar    1  UNL1       -0.1220
     25 C         142.5861  143.1933  160.8024 C.ar    1  UNL1        0.1933
     26 N         142.1025  142.1009  161.7096 N.ar    1  UNL1       -0.2860
     27 C         140.8381  141.3113  161.5427 C.3     1  UNL1        0.1341
     28 C         143.7015  142.5734  165.9574 C.3     1  UNL1        0.0556
     29 C         143.2939  141.2468  165.3884 C.ar    1  UNL1        0.1001
     30 N         143.0888  139.9798  166.1648 N.ar    1  UNL1       -0.2085
     31 C         142.6879  138.9042  165.1993 C.ar    1  UNL1        0.2849
     32 O         142.6454  139.5063  163.8261 O.2     1  UNL1       -0.4283
     33 C         143.0199  140.9541  163.9430 C.ar    1  UNL1        0.1964
@<TRIPOS>BOND
     1    28    29    1
     2    29    30   ar
     3    30    31   ar
     4    31    32   ar
     5    32    33   ar
     6    33    22    1
     7    22    23   ar
     8    23    24   ar
     9    24    25   ar
    10    25    21    1
    11    21    20    1
    12    20    19    1
    13    19    18    1
    14    18     1    1
    15     1     2    1
    16     2     3    1
    17     3     4    1
    18     4     8    1
    19     8     9   ar
    20     9    10   ar
    21    10    11   ar
    22    11    12   ar
    23    12    14    1
    24    14    15    1
    25    14    16    1
    26    14    17    1
    27    12    13   ar
    28     4     5    1
    29     5     6    1
    30     6     7    1
    31    25    26   ar
    32    26    27    1
    33    33    29   ar
    34    26    22   ar
    35     7     1    1
    36     6     4    1
    37    13     8   ar
@<TRIPOS>MOLECULE
*****
 33 37 0 0 0
SMALL
GASTEIGER

@<TRIPOS>ATOM
      1 N         140.7009  144.8410  161.7932 N.3     1  UNL1       -0.2726
      2 C         141.3708  143.6314  162.3747 C.3     1  UNL1        0.0724
      3 C         140.8583  143.0305  163.6499 C.3     1  UNL1        0.0214
      4 C         139.6757  143.6391  164.3436 C.3     1  UNL1        0.0216
      5 C         138.4933  144.2477  165.0373 C.3     1  UNL1        0.0058
      6 C         139.0058  144.8486  163.7622 C.3     1  UNL1        0.0201
      7 C         139.5184  145.4496  162.4869 C.3     1  UNL1        0.0724
      8 C         139.7666  142.5938  165.4156 C.ar    1  UNL1       -0.0228
      9 C         140.3419  142.9424  166.7563 C.ar    1  UNL1       -0.0043
     10 C         140.4327  141.8971  167.8282 C.ar    1  UNL1       -0.0004
     11 C         139.9483  140.5031  167.5595 C.ar    1  UNL1        0.0038
     12 C         139.3730  140.1545  166.2187 C.ar    1  UNL1        0.0711
     13 C         139.2822  141.1998  165.1468 C.ar    1  UNL1       -0.0004
     14 C         138.8886  138.7605  165.9500 C.3     1  UNL1        0.4186
     15 F         138.4042  137.3666  165.6813 F       1  UNL1       -0.1659
     16 F         140.2675  138.3659  165.5109 F       1  UNL1       -0.1659
     17 F         137.5096  139.1551  166.3892 F       1  UNL1       -0.1659
     18 C         141.2134  145.4420  160.5180 C.3     1  UNL1        0.0730
     19 C         141.3003  144.6050  159.2762 C.3     1  UNL1        0.0294
     20 C         140.1472  144.5631  158.3178 C.3     1  UNL1        0.0666
     21 S         139.2256  143.3797  158.3045 S.3     1  UNL1       -0.0756
     22 C         139.6027  140.6544  161.0424 C.ar    1  UNL1        0.2029
     23 N         138.4930  141.4869  161.6130 N.ar    1  UNL1       -0.1250
     24 N         138.2167  142.6091  160.6568 N.ar    1  UNL1       -0.1220
     25 C         139.1556  142.4702  159.4953 C.ar    1  UNL1        0.1933
     26 N         140.0122  141.2621  159.7336 N.ar    1  UNL1       -0.2860
     27 C         141.0892  140.7515  158.8230 C.3     1  UNL1        0.1341
     28 C         137.9701  137.9808  161.9565 C.3     1  UNL1        0.0556
     29 C         139.4479  138.2004  162.0905 C.ar    1  UNL1        0.1001
     30 N         140.4347  137.2296  162.6682 N.ar    1  UNL1       -0.2085
     31 C         141.7950  137.8585  162.6051 C.ar    1  UNL1        0.2849
     32 O         141.6489  139.2180  161.9884 O.2     1  UNL1       -0.4283
     33 C         140.1983  139.4293  161.6703 C.ar    1  UNL1        0.1964
@<TRIPOS>BOND
     1    28    29    1
     2    29    30   ar
     3    30    31   ar
     4    31    32   ar
     5    32    33   ar
     6    33    22    1
     7    22    23   ar
     8    23    24   ar
     9    24    25   ar
    10    25    21    1
    11    21    20    1
    12    20    19    1
    13    19    18    1
    14    18     1    1
    15     1     2    1
    16     2     3    1
    17     3     4    1
    18     4     8    1
    19     8     9   ar
    20     9    10   ar
    21    10    11   ar
    22    11    12   ar
    23    12    14    1
    24    14    15    1
    25    14    16    1
    26    14    17    1
    27    12    13   ar
    28     4     5    1
    29     5     6    1
    30     6     7    1
    31    25    26   ar
    32    26    27    1
    33    33    29   ar
    34    26    22   ar
    35     7     1    1
    36     6     4    1
    37    13     8   ar
@<TRIPOS>MOLECULE
*****
 33 37 0 0 0
SMALL
GASTEIGER

@<TRIPOS>ATOM
      1 N         139.7883  144.6284  162.3223 N.3     1  UNL1       -0.2726
      2 C         140.6298  144.2163  163.4936 C.3     1  UNL1        0.0724
      3 C         140.1608  143.1220  164.4060 C.3     1  UNL1        0.0214
      4 C         138.8501  142.4398  164.1471 C.3     1  UNL1        0.0216
      5 C         137.5396  141.7577  163.8882 C.3     1  UNL1        0.0058
      6 C         138.0086  142.8520  162.9758 C.3     1  UNL1        0.0201
      7 C         138.4778  143.9463  162.0634 C.3     1  UNL1        0.0724
      8 C         139.0651  141.5701  165.3502 C.ar    1  UNL1       -0.0228
      9 C         139.9270  142.0517  166.4794 C.ar    1  UNL1       -0.0043
     10 C         140.1420  141.1819  167.6825 C.ar    1  UNL1       -0.0004
     11 C         139.4951  139.8306  167.7563 C.ar    1  UNL1        0.0038
     12 C         138.6332  139.3490  166.6270 C.ar    1  UNL1        0.0711
     13 C         138.4182  140.2187  165.4240 C.ar    1  UNL1       -0.0004
     14 C         137.9864  137.9977  166.7008 C.3     1  UNL1        0.4186
     15 F         137.3395  136.6463  166.7746 F       1  UNL1       -0.1659
     16 F         137.1204  138.4738  167.8293 F       1  UNL1       -0.1659
     17 F         138.8523  137.5215  165.5723 F       1  UNL1       -0.1659
     18 C         140.2574  145.7227  161.4099 C.3     1  UNL1        0.0730
     19 C         140.3323  145.4852  159.9306 C.3     1  UNL1        0.0294
     20 C         141.6165  145.0213  159.3096 C.3     1  UNL1        0.0666
     21 S         142.0027  143.5735  159.3785 S.3     1  UNL1       -0.0756
     22 C         143.1935  141.7188  162.5734 C.ar    1  UNL1        0.2029
     23 N         144.3041  142.7088  162.3821 N.ar    1  UNL1       -0.1250
     24 N         143.9932  143.5241  161.1620 N.ar    1  UNL1       -0.1220
     25 C         142.6905  143.0380  160.5992 C.ar    1  UNL1        0.1933
     26 N         142.1963  141.9222  161.4716 N.ar    1  UNL1       -0.2860
     27 C         140.9276  141.1462  161.2763 C.3     1  UNL1        0.1341
     28 C         143.5191  142.3129  165.7656 C.3     1  UNL1        0.0556
     29 C         143.2468  140.9768  165.1408 C.ar    1  UNL1        0.1001
     30 N         143.0764  139.6790  165.8735 N.ar    1  UNL1       -0.2085
     31 C         142.8214  138.6040  164.8591 C.ar    1  UNL1        0.2849
     32 O         142.8343  139.2372  163.4993 O.2     1  UNL1       -0.4283
     33 C         143.0972  140.7036  163.6735 C.ar    1  UNL1        0.1964
@<TRIPOS>BOND
     1    28    29    1
     2    29    30   ar
     3    30    31   ar
     4    31    32   ar
     5    32    33   ar
     6    33    22    1
     7    22    23   ar
     8    23    24   ar
     9    24    25   ar
    10    25    21    1
    11    21    20    1
    12    20    19    1
    13    19    18    1
    14    18     1    1
    15     1     2    1
    16     2     3    1
    17     3     4    1
    18     4     8    1
    19     8     9   ar
    20     9    10   ar
    21    10    11   ar
    22    11    12   ar
    23    12    14    1
    24    14    15    1
    25    14    16    1
    26    14    17    1
    27    12    13   ar
    28     4     5    1
    29     5     6    1
    30     6     7    1
    31    25    26   ar
    32    26    27    1
    33    33    29   ar
    34    26    22   ar
    35     7     1    1
    36     6     4    1
    37    13     8   ar
@<TRIPOS>MOLECULE
*****
 33 37 0 0 0
SMALL
GASTEIGER

@<TRIPOS>ATOM
      1 N         139.8569  138.4167  164.4746 N.3     1  UNL1       -0.2726
      2 C         139.2732  139.0951  165.6784 C.3     1  UNL1        0.0724
      3 C         140.1676  139.5315  166.8007 C.3     1  UNL1        0.0214
      4 C         141.6458  139.2895  166.7192 C.3     1  UNL1        0.0216
      5 C         143.1238  139.0475  166.6377 C.3     1  UNL1        0.0058
      6 C         142.2295  138.6111  165.5154 C.3     1  UNL1        0.0201
      7 C         141.3350  138.1747  164.3931 C.3     1  UNL1        0.0724
      8 C         141.8252  139.9332  168.0621 C.ar    1  UNL1       -0.0228
      9 C         142.6143  139.2343  169.1294 C.ar    1  UNL1       -0.0043
     10 C         142.7937  139.8780  170.4724 C.ar    1  UNL1       -0.0004
     11 C         142.1840  141.2205  170.7480 C.ar    1  UNL1        0.0038
     12 C         141.3950  141.9193  169.6808 C.ar    1  UNL1        0.0711
     13 C         141.2156  141.2757  168.3379 C.ar    1  UNL1       -0.0004
     14 C         140.7853  143.2619  169.9566 C.3     1  UNL1        0.4186
     15 F         140.1757  144.6044  170.2323 F       1  UNL1       -0.1659
     16 F         142.1527  143.8781  169.9795 F       1  UNL1       -0.1659
     17 F         139.4179  142.6457  169.9336 F       1  UNL1       -0.1659
     18 C         138.9625  137.9803  163.3523 C.3     1  UNL1        0.0730
     19 C         138.8992  138.7844  162.0876 C.3     1  UNL1        0.0294
     20 C         137.7034  139.6447  161.8049 C.3     1  UNL1        0.0666
     21 S         137.8001  141.1345  161.9504 S.3     1  UNL1       -0.0756
     22 C         140.5639  142.6118  164.2405 C.ar    1  UNL1        0.2029
     23 N         139.3713  142.6742  165.1483 N.ar    1  UNL1       -0.1250
     24 N         138.1909  142.1284  164.4009 N.ar    1  UNL1       -0.1220
     25 C         138.6538  141.7287  163.0313 C.ar    1  UNL1        0.1933
     26 N         140.1204  142.0275  162.9322 N.ar    1  UNL1       -0.2860
     27 C         140.9908  141.7845  161.7349 C.3     1  UNL1        0.1341
     28 C         141.9931  145.3729  163.2491 C.3     1  UNL1        0.0556
     29 C         142.6125  144.3250  164.1256 C.ar    1  UNL1        0.1001
     30 N         143.9975  144.3622  164.7003 N.ar    1  UNL1       -0.2085
     31 C         144.1965  143.1161  165.5112 C.ar    1  UNL1        0.2849
     32 O         142.9345  142.3087  165.4377 O.2     1  UNL1       -0.4283
     33 C         141.9556  143.0559  164.5813 C.ar    1  UNL1        0.1964
@<TRIPOS>BOND
     1    28    29    1
     2    29    30   ar
     3    30    31   ar
     4    31    32   ar
     5    32    33   ar
     6    33    22    1
     7    22    23   ar
     8    23    24   ar
     9    24    25   ar
    10    25    21    1
    11    21    20    1
    12    20    19    1
    13    19    18    1
    14    18     1    1
    15     1     2    1
    16     2     3    1
    17     3     4    1
    18     4     8    1
    19     8     9   ar
    20     9    10   ar
    21    10    11   ar
    22    11    12   ar
    23    12    14    1
    24    14    15    1
    25    14    16    1
    26    14    17    1
    27    12    13   ar
    28     4     5    1
    29     5     6    1
    30     6     7    1
    31    25    26   ar
    32    26    27    1
    33    33    29   ar
    34    26    22   ar
    35     7     1    1
    36     6     4    1
    37    13     8   ar
@<TRIPOS>MOLECULE
*****
 33 37 0 0 0
SMALL
GASTEIGER

@<TRIPOS>ATOM
      1 N         142.9133  143.0163  161.3821 N.3     1  UNL1       -0.2726
      2 C         141.8819  142.7284  162.4324 C.3     1  UNL1        0.0724
      3 C         142.2880  142.0885  163.7269 C.3     1  UNL1        0.0214
      4 C         143.7256  141.7366  163.9710 C.3     1  UNL1        0.0216
      5 C         145.1631  141.3846  164.2151 C.3     1  UNL1        0.0058
      6 C         144.7570  142.0245  162.9206 C.3     1  UNL1        0.0201
      7 C         144.3509  142.6644  161.6262 C.3     1  UNL1        0.0724
      8 C         143.3646  141.2009  165.3248 C.ar    1  UNL1       -0.0228
      9 C         143.1723  139.7263  165.5210 C.ar    1  UNL1       -0.0043
     10 C         142.8113  139.1906  166.8748 C.ar    1  UNL1       -0.0004
     11 C         142.6426  140.1295  168.0323 C.ar    1  UNL1        0.0038
     12 C         142.8349  141.6042  167.8361 C.ar    1  UNL1        0.0711
     13 C         143.1959  142.1398  166.4824 C.ar    1  UNL1       -0.0004
     14 C         142.6662  142.5431  168.9937 C.3     1  UNL1        0.4186
     15 F         142.4975  143.4820  170.1512 F       1  UNL1       -0.1659
     16 F         144.0295  142.1694  169.4955 F       1  UNL1       -0.1659
     17 F         141.3029  142.9169  168.4919 F       1  UNL1       -0.1659
     18 C         142.5073  143.6562  160.0877 C.3     1  UNL1        0.0730
     19 C         141.0599  143.9379  159.8118 C.3     1  UNL1        0.0294
     20 C         140.2874  143.0509  158.8810 C.3     1  UNL1        0.0666
     21 S         138.8984  142.6143  159.2413 S.3     1  UNL1       -0.0756
     22 C         138.4992  141.0098  162.7530 C.ar    1  UNL1        0.2029
     23 N         137.6656  142.2478  162.9035 N.ar    1  UNL1       -0.1250
     24 N         137.7137  142.9995  161.6063 N.ar    1  UNL1       -0.1220
     25 C         138.5770  142.2261  160.6541 C.ar    1  UNL1        0.1933
     26 N         139.0624  140.9964  161.3628 N.ar    1  UNL1       -0.2860
     27 C         139.9545  139.9390  160.7831 C.3     1  UNL1        0.1341
     28 C         139.5160  141.5613  165.8044 C.3     1  UNL1        0.0556
     29 C         139.1965  140.2217  165.2101 C.ar    1  UNL1        0.1001
     30 N         139.2883  138.9003  165.9140 N.ar    1  UNL1       -0.2085
     31 C         138.8777  137.8301  164.9465 C.ar    1  UNL1        0.2849
     32 O         138.5321  138.4901  163.6446 O.2     1  UNL1       -0.4283
     33 C         138.7292  139.9681  163.8075 C.ar    1  UNL1        0.1964
@<TRIPOS>BOND
     1    28    29    1
     2    29    30   ar
     3    30    31   ar
     4    31    32   ar
     5    32    33   ar
     6    33    22    1
     7    22    23   ar
     8    23    24   ar
     9    24    25   ar
    10    25    21    1
    11    21    20    1
    12    20    19    1
    13    19    18    1
    14    18     1    1
    15     1     2    1
    16     2     3    1
    17     3     4    1
    18     4     8    1
    19     8     9   ar
    20     9    10   ar
    21    10    11   ar
    22    11    12   ar
    23    12    14    1
    24    14    15    1
    25    14    16    1
    26    14    17    1
    27    12    13   ar
    28     4     5    1
    29     5     6    1
    30     6     7    1
    31    25    26   ar
    32    26    27    1
    33    33    29   ar
    34    26    22   ar
    35     7     1    1
    36     6     4    1
    37    13     8   ar
@<TRIPOS>MOLECULE
*****
 33 37 0 0 0
SMALL
GASTEIGER

@<TRIPOS>ATOM
      1 N         140.1977  142.7364  160.1845 N.3     1  UNL1       -0.2726
      2 C         141.1255  141.9764  161.0854 C.3     1  UNL1        0.0724
      3 C         140.5965  140.8624  161.9392 C.3     1  UNL1        0.0214
      4 C         139.1396  140.5083  161.8921 C.3     1  UNL1        0.0216
      5 C         137.6828  140.1542  161.8450 C.3     1  UNL1        0.0058
      6 C         138.2118  141.2682  160.9912 C.3     1  UNL1        0.0201
      7 C         138.7409  142.3823  160.1374 C.3     1  UNL1        0.0724
      8 C         139.3697  139.4263  162.9052 C.ar    1  UNL1       -0.0228
      9 C         140.4207  138.3838  162.6635 C.ar    1  UNL1       -0.0043
     10 C         140.6509  137.3018  163.6766 C.ar    1  UNL1       -0.0004
     11 C         139.8301  137.2624  164.9315 C.ar    1  UNL1        0.0038
     12 C         138.7791  138.3050  165.1732 C.ar    1  UNL1        0.0711
     13 C         138.5489  139.3869  164.1601 C.ar    1  UNL1       -0.0004
     14 C         137.9582  138.2656  166.4281 C.3     1  UNL1        0.4186
     15 F         137.1374  138.2262  167.6830 F       1  UNL1       -0.1659
     16 F         137.8434  136.7750  166.3063 F       1  UNL1       -0.1659
     17 F         138.0730  139.7563  166.5500 F       1  UNL1       -0.1659
     18 C         140.7267  143.8504  159.3307 C.3     1  UNL1        0.0730
     19 C         140.9564  145.2078  159.9264 C.3     1  UNL1        0.0294
     20 C         140.0156  145.7392  160.9668 C.3     1  UNL1        0.0666
     21 S         140.4364  145.7836  162.4059 S.3     1  UNL1       -0.0756
     22 C         140.3267  142.7988  164.8847 C.ar    1  UNL1        0.2029
     23 N         138.8703  142.9645  164.5659 N.ar    1  UNL1       -0.1250
     24 N         138.7341  144.1028  163.5985 N.ar    1  UNL1       -0.1220
     25 C         140.1063  144.6406  163.3194 C.ar    1  UNL1        0.1933
     26 N         141.0905  143.8346  164.1143 N.ar    1  UNL1       -0.2860
     27 C         142.5776  144.0302  164.1352 C.3     1  UNL1        0.1341
     28 C         140.3894  142.9732  168.1427 C.3     1  UNL1        0.0556
     29 C         140.9445  141.8568  167.3087 C.ar    1  UNL1        0.1001
     30 N         141.6259  140.6246  167.8258 N.ar    1  UNL1       -0.2085
     31 C         142.0182  139.7830  166.6478 C.ar    1  UNL1        0.2849
     32 O         141.5793  140.4950  165.4026 O.2     1  UNL1       -0.4283
     33 C         140.9157  141.7767  165.8111 C.ar    1  UNL1        0.1964
@<TRIPOS>BOND
     1    28    29    1
     2    29    30   ar
     3    30    31   ar
     4    31    32   ar
     5    32    33   ar
     6    33    22    1
     7    22    23   ar
     8    23    24   ar
     9    24    25   ar
    10    25    21    1
    11    21    20    1
    12    20    19    1
    13    19    18    1
    14    18     1    1
    15     1     2    1
    16     2     3    1
    17     3     4    1
    18     4     8    1
    19     8     9   ar
    20     9    10   ar
    21    10    11   ar
    22    11    12   ar
    23    12    14    1
    24    14    15    1
    25    14    16    1
    26    14    17    1
    27    12    13   ar
    28     4     5    1
    29     5     6    1
    30     6     7    1
    31    25    26   ar
    32    26    27    1
    33    33    29   ar
    34    26    22   ar
    35     7     1    1
    36     6     4    1
    37    13     8   ar
@<TRIPOS>MOLECULE
*****
 33 37 0 0 0
SMALL
GASTEIGER

@<TRIPOS>ATOM
      1 N         138.4145  140.1933  163.9066 N.3     1  UNL1       -0.2726
      2 C         138.6477  139.3390  165.1173 C.3     1  UNL1        0.0724
      3 C         139.2993  139.9251  166.3346 C.3     1  UNL1        0.0214
      4 C         139.7178  141.3656  166.3413 C.3     1  UNL1        0.0216
      5 C         140.1361  142.8060  166.3479 C.3     1  UNL1        0.0058
      6 C         139.4846  142.2199  165.1306 C.3     1  UNL1        0.0201
      7 C         138.8329  141.6337  163.9132 C.3     1  UNL1        0.0724
      8 C         140.2286  141.2108  167.7430 C.ar    1  UNL1       -0.0228
      9 C         139.4987  140.3312  168.7144 C.ar    1  UNL1       -0.0043
     10 C         140.0096  140.1764  170.1163 C.ar    1  UNL1       -0.0004
     11 C         141.2503  140.9011  170.5467 C.ar    1  UNL1        0.0038
     12 C         141.9803  141.7807  169.5752 C.ar    1  UNL1        0.0711
     13 C         141.4694  141.9355  168.1735 C.ar    1  UNL1       -0.0004
     14 C         143.2211  142.5054  170.0057 C.3     1  UNL1        0.4186
     15 F         144.4618  143.2301  170.4361 F       1  UNL1       -0.1659
     16 F         143.7949  142.3403  168.6297 F       1  UNL1       -0.1659
     17 F         142.6473  142.6705  171.3818 F       1  UNL1       -0.1659
     18 C         137.7630  139.6072  162.6893 C.3     1  UNL1        0.0730
     19 C         138.5501  139.4424  161.4231 C.3     1  UNL1        0.0294
     20 C         139.3685  138.2045  161.2045 C.3     1  UNL1        0.0666
     21 S         140.8570  138.2481  161.3841 S.3     1  UNL1       -0.0756
     22 C         142.4275  141.3929  163.0302 C.ar    1  UNL1        0.2029
     23 N         142.4320  140.4305  164.1809 N.ar    1  UNL1       -0.1250
     24 N         141.8442  139.1354  163.7043 N.ar    1  UNL1       -0.1220
     25 C         141.4765  139.2973  162.2591 C.ar    1  UNL1        0.1933
     26 N         141.8370  140.6925  161.8425 N.ar    1  UNL1       -0.2860
     27 C         141.6413  141.2835  160.4778 C.3     1  UNL1        0.1341
     28 C         144.9873  142.5617  161.3778 C.3     1  UNL1        0.0556
     29 C         144.1026  143.3445  162.3022 C.ar    1  UNL1        0.1001
     30 N         144.2392  144.8020  162.6295 N.ar    1  UNL1       -0.2085
     31 C         143.1471  145.1655  163.5913 C.ar    1  UNL1        0.2849
     32 O         142.3355  143.9326  163.8585 O.2     1  UNL1       -0.4283
     33 C         142.9260  142.8073  163.0618 C.ar    1  UNL1        0.1964
@<TRIPOS>BOND
     1    28    29    1
     2    29    30   ar
     3    30    31   ar
     4    31    32   ar
     5    32    33   ar
     6    33    22    1
     7    22    23   ar
     8    23    24   ar
     9    24    25   ar
    10    25    21    1
    11    21    20    1
    12    20    19    1
    13    19    18    1
    14    18     1    1
    15     1     2    1
    16     2     3    1
    17     3     4    1
    18     4     8    1
    19     8     9   ar
    20     9    10   ar
    21    10    11   ar
    22    11    12   ar
    23    12    14    1
    24    14    15    1
    25    14    16    1
    26    14    17    1
    27    12    13   ar
    28     4     5    1
    29     5     6    1
    30     6     7    1
    31    25    26   ar
    32    26    27    1
    33    33    29   ar
    34    26    22   ar
    35     7     1    1
    36     6     4    1
    37    13     8   ar
