@<TRIPOS>MOLECULE
*****
 32 35 0 0 0
SMALL
GASTEIGER

@<TRIPOS>ATOM
      1 C         139.0844  138.5714  163.2354 C.3     1  UNL1        0.0559
      2 C         139.3098  139.6256  164.2784 C.3     1  UNL1        0.2097
      3 N         139.5047  139.3862  165.7463 N.pl3   1  UNL1       -0.2170
      4 C         139.6951  140.7169  166.4117 C.2     1  UNL1        0.3339
      5 N         139.6179  141.7788  165.3552 N.2     1  UNL1       -0.0600
      6 C         139.3797  141.1044  164.0367 C.3     1  UNL1        0.2515
      7 H         139.5072  138.5095  166.1943 H       1  UNL1        0.2923
      8 C         139.1460  140.7223  162.6051 C.ar    1  UNL1        0.0297
      9 C         137.7508  140.4748  162.1132 C.ar    1  UNL1        0.0025
     10 C         137.5169  140.0928  160.6815 C.ar    1  UNL1        0.0295
     11 C         138.6784  139.9582  159.7420 C.ar    1  UNL1        0.1401
     12 F         138.4446  139.5762  158.3104 F       1  UNL1       -0.2042
     13 C         140.0737  140.2057  160.2339 C.ar    1  UNL1        0.0295
     14 C         140.3075  140.5878  161.6655 C.ar    1  UNL1        0.0025
     15 C         139.4008  142.5032  163.4956 C.ar    1  UNL1        0.0488
     16 C         140.6999  143.2450  163.3847 C.ar    1  UNL1        0.0057
     17 C         140.7210  144.6438  162.8437 C.ar    1  UNL1        0.0495
     18 C         139.4430  145.3010  162.4136 C.ar    1  UNL1        0.2223
     19 F         139.4642  146.6999  161.8726 F       1  UNL1       -0.1832
     20 N         138.1441  144.5593  162.5245 N.ar    1  UNL1       -0.2166
     21 C         138.1229  143.1604  163.0655 C.ar    1  UNL1        0.1014
     22 C         139.9228  140.9456  167.8767 C.ar    1  UNL1        0.1628
     23 C         140.4185  142.2763  168.3599 C.ar    1  UNL1        0.0312
     24 C         140.6461  142.5049  169.8247 C.ar    1  UNL1        0.0564
     25 C         140.3781  141.4028  170.8064 C.ar    1  UNL1        0.0252
     26 C         139.8824  140.0721  170.3232 C.ar    1  UNL1        0.0993
     27 N         139.6547  139.8435  168.8583 N.ar    1  UNL1       -0.2364
     28 C         141.1418  143.8356  170.3080 C.2     1  UNL1        0.2428
     29 N         142.5735  143.9959  170.7261 N.am    1  UNL1       -0.3253
     30 O         140.2060  145.0060  170.3733 O.2     1  UNL1       -0.2704
     31 H         143.1877  143.2277  170.6833 H       1  UNL1        0.1453
     32 H         142.8988  144.8692  171.0433 H       1  UNL1        0.1453
@<TRIPOS>BOND
     1     2     1    1
     2     2     3    1
     3     3     4    1
     4     4    22    1
     5    22    23   ar
     6    23    24   ar
     7    24    28    1
     8    28    29   am
     9    28    30    2
    10    24    25   ar
    11    25    26   ar
    12    26    27   ar
    13     4     5    2
    14     5     6    1
    15     6     8    1
    16     8     9   ar
    17     9    10   ar
    18    10    11   ar
    19    11    12    1
    20    11    13   ar
    21    13    14   ar
    22     6    15    1
    23    15    16   ar
    24    16    17   ar
    25    17    18   ar
    26    18    19    1
    27    18    20   ar
    28    20    21   ar
    29     6     2    1
    30    14     8   ar
    31    21    15   ar
    32    27    22   ar
    33     3     7    1
    34    29    31    1
    35    29    32    1
@<TRIPOS>MOLECULE
*****
 32 35 0 0 0
SMALL
GASTEIGER

@<TRIPOS>ATOM
      1 C         140.7768  137.4345  163.4505 C.3     1  UNL1        0.0559
      2 C         140.8866  138.5945  164.3951 C.3     1  UNL1        0.2097
      3 N         140.2457  138.6939  165.7476 N.pl3   1  UNL1       -0.2170
      4 C         140.6196  140.0197  166.3414 C.2     1  UNL1        0.3339
      5 N         141.4916  140.7396  165.3559 N.2     1  UNL1       -0.0600
      6 C         141.6567  139.8588  164.1530 C.3     1  UNL1        0.2515
      7 H         139.6791  138.0093  166.1711 H       1  UNL1        0.2923
      8 C         141.9976  139.2142  162.8422 C.ar    1  UNL1        0.0297
      9 C         141.0609  139.3417  161.6777 C.ar    1  UNL1        0.0025
     10 C         141.4018  138.6970  160.3668 C.ar    1  UNL1        0.0295
     11 C         142.6793  137.9249  160.2206 C.ar    1  UNL1        0.1401
     12 F         143.0203  137.2802  158.9098 F       1  UNL1       -0.2042
     13 C         143.6162  137.7973  161.3852 C.ar    1  UNL1        0.0295
     14 C         143.2753  138.4420  162.6960 C.ar    1  UNL1        0.0025
     15 C         142.4980  140.9884  163.6369 C.ar    1  UNL1        0.0488
     16 C         143.9373  141.0986  164.0445 C.ar    1  UNL1        0.0057
     17 C         144.7787  142.2281  163.5284 C.ar    1  UNL1        0.0495
     18 C         144.1806  143.2474  162.6047 C.ar    1  UNL1        0.2223
     19 F         145.0220  144.3769  162.0886 F       1  UNL1       -0.1832
     20 N         142.7414  143.1372  162.1970 N.ar    1  UNL1       -0.2166
     21 C         141.9000  142.0077  162.7131 C.ar    1  UNL1        0.1014
     22 C         140.1958  140.5350  167.6849 C.ar    1  UNL1        0.1628
     23 C         140.7545  141.8270  168.2029 C.ar    1  UNL1        0.0312
     24 C         140.3307  142.3423  169.5464 C.ar    1  UNL1        0.0564
     25 C         139.3482  141.5655  170.3718 C.ar    1  UNL1        0.0252
     26 C         138.7895  140.2734  169.8538 C.ar    1  UNL1        0.0993
     27 N         139.2133  139.7582  168.5103 N.ar    1  UNL1       -0.2364
     28 C         140.8894  143.6344  170.0645 C.2     1  UNL1        0.2428
     29 N         139.9863  144.8152  170.2650 N.am    1  UNL1       -0.3253
     30 O         142.3511  143.7457  170.3820 O.2     1  UNL1       -0.2704
     31 H         139.0269  144.7421  170.0566 H       1  UNL1        0.1453
     32 H         140.3529  145.6632  170.6050 H       1  UNL1        0.1453
@<TRIPOS>BOND
     1     2     1    1
     2     2     3    1
     3     3     4    1
     4     4    22    1
     5    22    23   ar
     6    23    24   ar
     7    24    28    1
     8    28    29   am
     9    28    30    2
    10    24    25   ar
    11    25    26   ar
    12    26    27   ar
    13     4     5    2
    14     5     6    1
    15     6     8    1
    16     8     9   ar
    17     9    10   ar
    18    10    11   ar
    19    11    12    1
    20    11    13   ar
    21    13    14   ar
    22     6    15    1
    23    15    16   ar
    24    16    17   ar
    25    17    18   ar
    26    18    19    1
    27    18    20   ar
    28    20    21   ar
    29     6     2    1
    30    14     8   ar
    31    21    15   ar
    32    27    22   ar
    33     3     7    1
    34    29    31    1
    35    29    32    1
@<TRIPOS>MOLECULE
*****
 32 35 0 0 0
SMALL
GASTEIGER

@<TRIPOS>ATOM
      1 C         141.6194  137.6429  163.3111 C.3     1  UNL1        0.0559
      2 C         141.4773  138.6565  164.4076 C.3     1  UNL1        0.2097
      3 N         142.0906  138.5694  165.7737 N.pl3   1  UNL1       -0.2170
      4 C         141.6893  139.7943  166.5409 C.2     1  UNL1        0.3339
      5 N         140.8280  140.6385  165.6489 N.2     1  UNL1       -0.0600
      6 C         140.6970  139.9353  164.3305 C.3     1  UNL1        0.2515
      7 H         142.6570  137.8369  166.1081 H       1  UNL1        0.2923
      8 C         140.3894  139.4795  162.9349 C.ar    1  UNL1        0.0297
      9 C         141.2452  139.9367  161.7909 C.ar    1  UNL1        0.0025
     10 C         140.9376  139.4809  160.3953 C.ar    1  UNL1        0.0295
     11 C         139.7744  138.5680  160.1437 C.ar    1  UNL1        0.1401
     12 F         139.4668  138.1122  158.7481 F       1  UNL1       -0.2042
     13 C         138.9186  138.1108  161.2877 C.ar    1  UNL1        0.0295
     14 C         139.2261  138.5666  162.6833 C.ar    1  UNL1        0.0025
     15 C         139.8524  141.1188  163.9616 C.ar    1  UNL1        0.0488
     16 C         138.3566  141.0148  164.0031 C.ar    1  UNL1        0.0057
     17 C         137.5120  142.1982  163.6343 C.ar    1  UNL1        0.0495
     18 C         138.1632  143.4857  163.2239 C.ar    1  UNL1        0.2223
     19 F         137.3185  144.6691  162.8550 F       1  UNL1       -0.1832
     20 N         139.6589  143.5896  163.1823 N.ar    1  UNL1       -0.2166
     21 C         140.5036  142.4062  163.5512 C.ar    1  UNL1        0.1014
     22 C         142.0806  140.1182  167.9523 C.ar    1  UNL1        0.1628
     23 C         141.9655  141.5255  168.4584 C.ar    1  UNL1        0.0312
     24 C         142.3568  141.8493  169.8698 C.ar    1  UNL1        0.0564
     25 C         142.8633  140.7658  170.7750 C.ar    1  UNL1        0.0252
     26 C         142.9784  139.3585  170.2690 C.ar    1  UNL1        0.0993
     27 N         142.5871  139.0347  168.8576 N.ar    1  UNL1       -0.2364
     28 C         142.2418  143.2567  170.3759 C.2     1  UNL1        0.2428
     29 N         143.3756  143.8741  171.1396 N.am    1  UNL1       -0.3253
     30 O         140.9929  144.0465  170.1184 O.2     1  UNL1       -0.2704
     31 H         144.1953  143.3557  171.3086 H       1  UNL1        0.1453
     32 H         143.3001  144.7978  171.4718 H       1  UNL1        0.1453
@<TRIPOS>BOND
     1     2     1    1
     2     2     3    1
     3     3     4    1
     4     4    22    1
     5    22    23   ar
     6    23    24   ar
     7    24    28    1
     8    28    29   am
     9    28    30    2
    10    24    25   ar
    11    25    26   ar
    12    26    27   ar
    13     4     5    2
    14     5     6    1
    15     6     8    1
    16     8     9   ar
    17     9    10   ar
    18    10    11   ar
    19    11    12    1
    20    11    13   ar
    21    13    14   ar
    22     6    15    1
    23    15    16   ar
    24    16    17   ar
    25    17    18   ar
    26    18    19    1
    27    18    20   ar
    28    20    21   ar
    29     6     2    1
    30    14     8   ar
    31    21    15   ar
    32    27    22   ar
    33     3     7    1
    34    29    31    1
    35    29    32    1
@<TRIPOS>MOLECULE
*****
 32 35 0 0 0
SMALL
GASTEIGER

@<TRIPOS>ATOM
      1 C         139.1900  138.0488  162.9086 C.3     1  UNL1        0.0559
      2 C         139.3914  139.0120  164.0407 C.3     1  UNL1        0.2097
      3 N         139.6057  138.6484  165.4801 N.pl3   1  UNL1       -0.2170
      4 C         139.7606  139.9197  166.2612 C.2     1  UNL1        0.3339
      5 N         139.6420  141.0689  165.3045 N.2     1  UNL1       -0.0600
      6 C         139.4138  140.5079  163.9322 C.3     1  UNL1        0.2515
      7 H         139.6389  137.7357  165.8477 H       1  UNL1        0.2923
      8 C         139.1802  140.2483  162.4734 C.ar    1  UNL1        0.0297
      9 C         140.3434  140.1714  161.5296 C.ar    1  UNL1        0.0025
     10 C         140.1098  139.9118  160.0708 C.ar    1  UNL1        0.0295
     11 C         138.7129  139.7291  159.5559 C.ar    1  UNL1        0.1401
     12 F         138.4792  139.4695  158.0971 F       1  UNL1       -0.2042
     13 C         137.5495  139.8061  160.4997 C.ar    1  UNL1        0.0295
     14 C         137.7832  140.0657  161.9585 C.ar    1  UNL1        0.0025
     15 C         139.3874  141.9496  163.5187 C.ar    1  UNL1        0.0488
     16 C         138.0757  142.6567  163.3471 C.ar    1  UNL1        0.0057
     17 C         138.0493  144.0983  162.9336 C.ar    1  UNL1        0.0495
     18 C         139.3346  144.8328  162.6916 C.ar    1  UNL1        0.2223
     19 F         139.3081  146.2745  162.2781 F       1  UNL1       -0.1832
     20 N         140.6462  144.1257  162.8631 N.ar    1  UNL1       -0.2166
     21 C         140.6727  142.6840  163.2767 C.ar    1  UNL1        0.1014
     22 C         139.9932  140.0234  167.7395 C.ar    1  UNL1        0.1628
     23 C         141.3787  140.2529  168.2664 C.ar    1  UNL1        0.0312
     24 C         141.6113  140.3567  169.7446 C.ar    1  UNL1        0.0564
     25 C         140.4583  140.2309  170.6958 C.ar    1  UNL1        0.0252
     26 C         139.0728  140.0014  170.1689 C.ar    1  UNL1        0.0993
     27 N         138.8403  139.8976  168.6907 N.ar    1  UNL1       -0.2364
     28 C         142.9968  140.5862  170.2716 C.2     1  UNL1        0.2428
     29 N         143.6298  139.5761  171.1821 N.am    1  UNL1       -0.3253
     30 O         143.7493  141.8258  169.8880 O.2     1  UNL1       -0.2704
     31 H         143.1359  138.7625  171.4338 H       1  UNL1        0.1453
     32 H         144.5391  139.7267  171.5279 H       1  UNL1        0.1453
@<TRIPOS>BOND
     1     2     1    1
     2     2     3    1
     3     3     4    1
     4     4    22    1
     5    22    23   ar
     6    23    24   ar
     7    24    28    1
     8    28    29   am
     9    28    30    2
    10    24    25   ar
    11    25    26   ar
    12    26    27   ar
    13     4     5    2
    14     5     6    1
    15     6     8    1
    16     8     9   ar
    17     9    10   ar
    18    10    11   ar
    19    11    12    1
    20    11    13   ar
    21    13    14   ar
    22     6    15    1
    23    15    16   ar
    24    16    17   ar
    25    17    18   ar
    26    18    19    1
    27    18    20   ar
    28    20    21   ar
    29     6     2    1
    30    14     8   ar
    31    21    15   ar
    32    27    22   ar
    33     3     7    1
    34    29    31    1
    35    29    32    1
@<TRIPOS>MOLECULE
*****
 32 35 0 0 0
SMALL
GASTEIGER

@<TRIPOS>ATOM
      1 C         141.5852  145.3259  163.5131 C.3     1  UNL1        0.0559
      2 C         141.1963  144.8642  162.1400 C.3     1  UNL1        0.2097
      3 N         141.5370  145.5495  160.8499 N.pl3   1  UNL1       -0.2170
      4 C         140.9496  144.7450  159.7284 C.2     1  UNL1        0.3339
      5 N         140.2459  143.5624  160.3253 N.2     1  UNL1       -0.0600
      6 C         140.3983  143.6361  161.8158 C.3     1  UNL1        0.2515
      7 H         142.0551  146.3813  160.7558 H       1  UNL1        0.2923
      8 C         140.3833  143.4447  163.3034 C.ar    1  UNL1        0.0297
      9 C         139.3230  144.1051  164.1338 C.ar    1  UNL1        0.0025
     10 C         139.3079  143.9137  165.6216 C.ar    1  UNL1        0.0295
     11 C         140.3531  143.0620  166.2788 C.ar    1  UNL1        0.1401
     12 F         140.3380  142.8706  167.7664 F       1  UNL1       -0.2042
     13 C         141.4135  142.4015  165.4483 C.ar    1  UNL1        0.0295
     14 C         141.4285  142.5929  163.9606 C.ar    1  UNL1        0.0025
     15 C         139.5972  142.3680  161.8026 C.ar    1  UNL1        0.0488
     16 C         140.2837  141.0493  161.6029 C.ar    1  UNL1        0.0057
     17 C         139.4826  139.7812  161.5897 C.ar    1  UNL1        0.0495
     18 C         137.9951  139.8318  161.7762 C.ar    1  UNL1        0.2223
     19 F         137.1941  138.5636  161.7631 F       1  UNL1       -0.1832
     20 N         137.3087  141.1504  161.9759 N.ar    1  UNL1       -0.2166
     21 C         138.1098  142.4186  161.9891 C.ar    1  UNL1        0.1014
     22 C         141.0487  145.0665  158.2666 C.ar    1  UNL1        0.1628
     23 C         139.9693  145.8669  157.5999 C.ar    1  UNL1        0.0312
     24 C         140.0684  146.1884  156.1382 C.ar    1  UNL1        0.0564
     25 C         141.2468  145.7096  155.3431 C.ar    1  UNL1        0.0252
     26 C         142.3261  144.9093  156.0098 C.ar    1  UNL1        0.0993
     27 N         142.2270  144.5877  157.4715 N.ar    1  UNL1       -0.2364
     28 C         138.9890  146.9888  155.4715 C.2     1  UNL1        0.2428
     29 N         137.8443  146.2906  154.7991 N.am    1  UNL1       -0.3253
     30 O         139.0544  148.4874  155.4772 O.2     1  UNL1       -0.2704
     31 H         137.8014  145.3070  154.7953 H       1  UNL1        0.1453
     32 H         137.1359  146.8159  154.3615 H       1  UNL1        0.1453
@<TRIPOS>BOND
     1     2     1    1
     2     2     3    1
     3     3     4    1
     4     4    22    1
     5    22    23   ar
     6    23    24   ar
     7    24    28    1
     8    28    29   am
     9    28    30    2
    10    24    25   ar
    11    25    26   ar
    12    26    27   ar
    13     4     5    2
    14     5     6    1
    15     6     8    1
    16     8     9   ar
    17     9    10   ar
    18    10    11   ar
    19    11    12    1
    20    11    13   ar
    21    13    14   ar
    22     6    15    1
    23    15    16   ar
    24    16    17   ar
    25    17    18   ar
    26    18    19    1
    27    18    20   ar
    28    20    21   ar
    29     6     2    1
    30    14     8   ar
    31    21    15   ar
    32    27    22   ar
    33     3     7    1
    34    29    31    1
    35    29    32    1
@<TRIPOS>MOLECULE
*****
 32 35 0 0 0
SMALL
GASTEIGER

@<TRIPOS>ATOM
      1 C         143.4851  139.8823  163.0882 C.3     1  UNL1        0.0559
      2 C         142.4857  140.5393  163.9935 C.3     1  UNL1        0.2097
      3 N         142.0574  140.0421  165.3424 N.pl3   1  UNL1       -0.2170
      4 C         141.0461  141.0043  165.8914 C.2     1  UNL1        0.3339
      5 N         140.8494  142.0962  164.8819 N.2     1  UNL1       -0.0600
      6 C         141.7391  141.8088  163.7090 C.3     1  UNL1        0.2515
      7 H         142.3829  139.2273  165.7889 H       1  UNL1        0.2923
      8 C         142.5062  141.7858  162.4202 C.ar    1  UNL1        0.0297
      9 C         141.9812  141.0100  161.2486 C.ar    1  UNL1        0.0025
     10 C         142.7483  140.9870  159.9598 C.ar    1  UNL1        0.0295
     11 C         144.0404  141.7396  159.8426 C.ar    1  UNL1        0.1401
     12 F         144.8076  141.7166  158.5538 F       1  UNL1       -0.2042
     13 C         144.5656  142.5154  161.0142 C.ar    1  UNL1        0.0295
     14 C         143.7984  142.5384  162.3030 C.ar    1  UNL1        0.0025
     15 C         141.1528  143.0734  163.1549 C.ar    1  UNL1        0.0488
     16 C         140.0453  143.0074  162.1454 C.ar    1  UNL1        0.0057
     17 C         139.4591  144.2721  161.5914 C.ar    1  UNL1        0.0495
     18 C         139.9804  145.6028  162.0469 C.ar    1  UNL1        0.2223
     19 F         139.3941  146.8675  161.4928 F       1  UNL1       -0.1832
     20 N         141.0878  145.6688  163.0564 N.ar    1  UNL1       -0.2166
     21 C         141.6741  144.4041  163.6104 C.ar    1  UNL1        0.1014
     22 C         140.3532  140.8940  167.2173 C.ar    1  UNL1        0.1628
     23 C         140.6073  141.9177  168.2838 C.ar    1  UNL1        0.0312
     24 C         139.9144  141.8073  169.6095 C.ar    1  UNL1        0.0564
     25 C         138.9674  140.6732  169.8688 C.ar    1  UNL1        0.0252
     26 C         138.7134  139.6496  168.8023 C.ar    1  UNL1        0.0993
     27 N         139.4063  139.7599  167.4765 N.ar    1  UNL1       -0.2364
     28 C         140.1684  142.8310  170.6761 C.2     1  UNL1        0.2428
     29 N         140.1668  144.2906  170.3303 N.am    1  UNL1       -0.3253
     30 O         140.4241  142.3951  172.0884 O.2     1  UNL1       -0.2704
     31 H         139.9989  144.5767  169.4034 H       1  UNL1        0.1453
     32 H         140.3335  144.9625  171.0303 H       1  UNL1        0.1453
@<TRIPOS>BOND
     1     2     1    1
     2     2     3    1
     3     3     4    1
     4     4    22    1
     5    22    23   ar
     6    23    24   ar
     7    24    28    1
     8    28    29   am
     9    28    30    2
    10    24    25   ar
    11    25    26   ar
    12    26    27   ar
    13     4     5    2
    14     5     6    1
    15     6     8    1
    16     8     9   ar
    17     9    10   ar
    18    10    11   ar
    19    11    12    1
    20    11    13   ar
    21    13    14   ar
    22     6    15    1
    23    15    16   ar
    24    16    17   ar
    25    17    18   ar
    26    18    19    1
    27    18    20   ar
    28    20    21   ar
    29     6     2    1
    30    14     8   ar
    31    21    15   ar
    32    27    22   ar
    33     3     7    1
    34    29    31    1
    35    29    32    1
@<TRIPOS>MOLECULE
*****
 32 35 0 0 0
SMALL
GASTEIGER

@<TRIPOS>ATOM
      1 C         140.2314  138.8853  162.9789 C.3     1  UNL1        0.0559
      2 C         140.5446  139.9907  163.9431 C.3     1  UNL1        0.2097
      3 N         141.0706  139.8217  165.3377 N.pl3   1  UNL1       -0.2170
      4 C         141.2379  141.1859  165.9386 C.2     1  UNL1        0.3339
      5 N         140.8153  142.1981  164.9154 N.2     1  UNL1       -0.0600
      6 C         140.3869  141.4595  163.6822 C.3     1  UNL1        0.2515
      7 H         141.2709  138.9657  165.7808 H       1  UNL1        0.2923
      8 C         139.9043  141.0082  162.3355 C.ar    1  UNL1        0.0297
      9 C         140.8593  140.9398  161.1809 C.ar    1  UNL1        0.0025
     10 C         140.3768  140.4884  159.8341 C.ar    1  UNL1        0.0295
     11 C         138.9393  140.1055  159.6422 C.ar    1  UNL1        0.1401
     12 F         138.4568  139.6542  158.2956 F       1  UNL1       -0.2042
     13 C         137.9842  140.1739  160.7969 C.ar    1  UNL1        0.0295
     14 C         138.4668  140.6252  162.1436 C.ar    1  UNL1        0.0025
     15 C         140.1282  142.8338  163.1397 C.ar    1  UNL1        0.0488
     16 C         141.2704  143.6748  162.6518 C.ar    1  UNL1        0.0057
     17 C         141.0117  145.0491  162.1093 C.ar    1  UNL1        0.0495
     18 C         139.6108  145.5824  162.0546 C.ar    1  UNL1        0.2223
     19 F         139.3522  146.9568  161.5120 F       1  UNL1       -0.1832
     20 N         138.4686  144.7415  162.5424 N.ar    1  UNL1       -0.2166
     21 C         138.7272  143.3671  163.0850 C.ar    1  UNL1        0.1014
     22 C         141.7398  141.4853  167.3201 C.ar    1  UNL1        0.1628
     23 C         140.9084  141.1231  168.5149 C.ar    1  UNL1        0.0312
     24 C         141.4102  141.4225  169.8964 C.ar    1  UNL1        0.0564
     25 C         142.7434  142.0841  170.0830 C.ar    1  UNL1        0.0252
     26 C         143.5748  142.4463  168.8882 C.ar    1  UNL1        0.0993
     27 N         143.0730  142.1469  167.5068 N.ar    1  UNL1       -0.2364
     28 C         140.5789  141.0602  171.0913 C.2     1  UNL1        0.2428
     29 N         139.9364  139.7074  171.1757 N.am    1  UNL1       -0.3253
     30 O         140.3900  142.0508  172.2017 O.2     1  UNL1       -0.2704
     31 H         140.0603  139.0573  170.4468 H       1  UNL1        0.1453
     32 H         139.3907  139.4697  171.9599 H       1  UNL1        0.1453
@<TRIPOS>BOND
     1     2     1    1
     2     2     3    1
     3     3     4    1
     4     4    22    1
     5    22    23   ar
     6    23    24   ar
     7    24    28    1
     8    28    29   am
     9    28    30    2
    10    24    25   ar
    11    25    26   ar
    12    26    27   ar
    13     4     5    2
    14     5     6    1
    15     6     8    1
    16     8     9   ar
    17     9    10   ar
    18    10    11   ar
    19    11    12    1
    20    11    13   ar
    21    13    14   ar
    22     6    15    1
    23    15    16   ar
    24    16    17   ar
    25    17    18   ar
    26    18    19    1
    27    18    20   ar
    28    20    21   ar
    29     6     2    1
    30    14     8   ar
    31    21    15   ar
    32    27    22   ar
    33     3     7    1
    34    29    31    1
    35    29    32    1
@<TRIPOS>MOLECULE
*****
 32 35 0 0 0
SMALL
GASTEIGER

@<TRIPOS>ATOM
      1 C         142.9576  144.8544  162.8502 C.3     1  UNL1        0.0559
      2 C         142.4488  143.7324  163.7058 C.3     1  UNL1        0.2097
      3 N         142.9347  143.3820  165.0810 N.pl3   1  UNL1       -0.2170
      4 C         142.1508  142.1968  165.5616 C.2     1  UNL1        0.3339
      5 N         141.1804  141.8148  164.4835 N.2     1  UNL1       -0.0600
      6 C         141.3645  142.7638  163.3366 C.3     1  UNL1        0.2515
      7 H         143.6437  143.8480  165.5804 H       1  UNL1        0.2923
      8 C         141.3200  143.5445  162.0565 C.ar    1  UNL1        0.0297
      9 C         140.4451  144.7581  161.9483 C.ar    1  UNL1        0.0025
     10 C         140.4006  145.5389  160.6682 C.ar    1  UNL1        0.0295
     11 C         141.2310  145.1060  159.4965 C.ar    1  UNL1        0.1401
     12 F         141.1865  145.8867  158.2164 F       1  UNL1       -0.2042
     13 C         142.1060  143.8923  159.6047 C.ar    1  UNL1        0.0295
     14 C         142.1505  143.1116  160.8848 C.ar    1  UNL1        0.0025
     15 C         140.2710  141.9585  162.6997 C.ar    1  UNL1        0.0488
     16 C         138.8451  142.4114  162.8087 C.ar    1  UNL1        0.0057
     17 C         137.7516  141.6060  162.1718 C.ar    1  UNL1        0.0495
     18 C         138.0840  140.3478  161.4259 C.ar    1  UNL1        0.2223
     19 F         136.9904  139.5425  160.7890 F       1  UNL1       -0.1832
     20 N         139.5097  139.8949  161.3169 N.ar    1  UNL1       -0.2166
     21 C         140.6033  140.7002  161.9538 C.ar    1  UNL1        0.1014
     22 C         142.3095  141.5136  166.8876 C.ar    1  UNL1        0.1628
     23 C         142.2677  142.3158  168.1543 C.ar    1  UNL1        0.0312
     24 C         142.4265  141.6326  169.4802 C.ar    1  UNL1        0.0564
     25 C         142.6270  140.1472  169.5393 C.ar    1  UNL1        0.0252
     26 C         142.6688  139.3451  168.2726 C.ar    1  UNL1        0.0993
     27 N         142.5101  140.0283  166.9467 N.ar    1  UNL1       -0.2364
     28 C         142.3846  142.4348  170.7471 C.2     1  UNL1        0.2428
     29 N         143.3361  143.5778  170.9427 N.am    1  UNL1       -0.3253
     30 O         141.3914  142.0939  171.8182 O.2     1  UNL1       -0.2704
     31 H         143.9880  143.8015  170.2397 H       1  UNL1        0.1453
     32 H         143.3087  144.1043  171.7742 H       1  UNL1        0.1453
@<TRIPOS>BOND
     1     2     1    1
     2     2     3    1
     3     3     4    1
     4     4    22    1
     5    22    23   ar
     6    23    24   ar
     7    24    28    1
     8    28    29   am
     9    28    30    2
    10    24    25   ar
    11    25    26   ar
    12    26    27   ar
    13     4     5    2
    14     5     6    1
    15     6     8    1
    16     8     9   ar
    17     9    10   ar
    18    10    11   ar
    19    11    12    1
    20    11    13   ar
    21    13    14   ar
    22     6    15    1
    23    15    16   ar
    24    16    17   ar
    25    17    18   ar
    26    18    19    1
    27    18    20   ar
    28    20    21   ar
    29     6     2    1
    30    14     8   ar
    31    21    15   ar
    32    27    22   ar
    33     3     7    1
    34    29    31    1
    35    29    32    1
@<TRIPOS>MOLECULE
*****
 32 35 0 0 0
SMALL
GASTEIGER

@<TRIPOS>ATOM
      1 C         144.5855  140.2235  163.2105 C.3     1  UNL1        0.0559
      2 C         143.7198  140.8527  164.2615 C.3     1  UNL1        0.2097
      3 N         143.7016  140.4959  165.7184 N.pl3   1  UNL1       -0.2170
      4 C         142.6909  141.3719  166.3975 C.2     1  UNL1        0.3339
      5 N         142.0844  142.2700  165.3604 N.2     1  UNL1       -0.0600
      6 C         142.7203  141.9491  164.0403 C.3     1  UNL1        0.2515
      7 H         144.2557  139.8077  166.1526 H       1  UNL1        0.2923
      8 C         143.1668  141.8532  162.6115 C.ar    1  UNL1        0.0297
      9 C         144.3130  142.6902  162.1262 C.ar    1  UNL1        0.0025
     10 C         144.7596  142.5944  160.6973 C.ar    1  UNL1        0.0295
     11 C         144.0599  141.6616  159.7539 C.ar    1  UNL1        0.1401
     12 F         144.5064  141.5657  158.3251 F       1  UNL1       -0.2042
     13 C         142.9135  140.8245  160.2392 C.ar    1  UNL1        0.0295
     14 C         142.4670  140.9204  161.6680 C.ar    1  UNL1        0.0025
     15 C         141.8142  143.0254  163.5203 C.ar    1  UNL1        0.0488
     16 C         142.2824  144.4502  163.4900 C.ar    1  UNL1        0.0057
     17 C         141.3763  145.5265  162.9700 C.ar    1  UNL1        0.0495
     18 C         140.0019  145.1782  162.4804 C.ar    1  UNL1        0.2223
     19 F         139.0958  146.2546  161.9604 F       1  UNL1       -0.1832
     20 N         139.5337  143.7535  162.5107 N.ar    1  UNL1       -0.2166
     21 C         140.4398  142.6771  163.0307 C.ar    1  UNL1        0.1014
     22 C         142.3470  141.3530  167.8575 C.ar    1  UNL1        0.1628
     23 C         141.3751  142.3519  168.4121 C.ar    1  UNL1        0.0312
     24 C         141.0313  142.3329  169.8720 C.ar    1  UNL1        0.0564
     25 C         141.6594  141.3151  170.7773 C.ar    1  UNL1        0.0252
     26 C         142.6312  140.3163  170.2227 C.ar    1  UNL1        0.0993
     27 N         142.9751  140.3352  168.7628 N.ar    1  UNL1       -0.2364
     28 C         140.0594  143.3319  170.4266 C.2     1  UNL1        0.2428
     29 N         140.3138  144.8003  170.2562 N.am    1  UNL1       -0.3253
     30 O         138.8331  142.8624  171.1517 O.2     1  UNL1       -0.2704
     31 H         141.1187  145.1084  169.7804 H       1  UNL1        0.1453
     32 H         139.6759  145.4559  170.6203 H       1  UNL1        0.1453
@<TRIPOS>BOND
     1     2     1    1
     2     2     3    1
     3     3     4    1
     4     4    22    1
     5    22    23   ar
     6    23    24   ar
     7    24    28    1
     8    28    29   am
     9    28    30    2
    10    24    25   ar
    11    25    26   ar
    12    26    27   ar
    13     4     5    2
    14     5     6    1
    15     6     8    1
    16     8     9   ar
    17     9    10   ar
    18    10    11   ar
    19    11    12    1
    20    11    13   ar
    21    13    14   ar
    22     6    15    1
    23    15    16   ar
    24    16    17   ar
    25    17    18   ar
    26    18    19    1
    27    18    20   ar
    28    20    21   ar
    29     6     2    1
    30    14     8   ar
    31    21    15   ar
    32    27    22   ar
    33     3     7    1
    34    29    31    1
    35    29    32    1
