@<TRIPOS>MOLECULE
*****
 35 39 0 0 0
SMALL
GASTEIGER

@<TRIPOS>ATOM
      1 C         142.9028  141.5737  160.2616 C.3     1  UNL1        0.0730
      2 N         142.2621  142.5333  161.2200 N.3     1  UNL1       -0.2726
      3 C         142.3971  144.0270  161.1947 C.3     1  UNL1        0.0721
      4 C         141.5922  144.5844  162.3311 C.3     1  UNL1        0.0190
      5 C         140.9598  143.4353  163.0588 C.3     1  UNL1        0.0201
      6 C         140.2564  144.2695  164.0880 C.3     1  UNL1        0.0061
      7 C         140.1214  142.7758  164.1134 C.3     1  UNL1        0.0237
      8 C         141.3738  142.1676  162.3721 C.3     1  UNL1        0.0724
      9 C         139.5594  141.5327  164.7369 C.ar    1  UNL1       -0.0225
     10 C         139.5996  141.3564  166.2259 C.ar    1  UNL1       -0.0043
     11 C         139.0376  140.1133  166.8494 C.ar    1  UNL1        0.0035
     12 C         138.4354  139.0464  165.9838 C.ar    1  UNL1        0.0714
     13 C         138.3952  139.2227  164.4948 C.ar    1  UNL1        0.0035
     14 C         138.9572  140.4659  163.8713 C.ar    1  UNL1       -0.0043
     15 C         137.8734  137.8033  166.6073 C.3     1  UNL1        0.4186
     16 F         137.3114  136.5601  167.2308 F       1  UNL1       -0.1659
     17 F         137.2861  138.6250  167.7163 F       1  UNL1       -0.1659
     18 F         138.4607  136.9816  165.4984 F       1  UNL1       -0.1659
     19 C         142.4744  140.1363  160.2404 C.3     1  UNL1        0.0294
     20 C         143.4963  139.0514  160.0712 C.3     1  UNL1        0.0666
     21 S         143.7906  138.1148  161.2052 S.3     1  UNL1       -0.0756
     22 C         144.7402  140.3822  163.3516 C.3     1  UNL1        0.1340
     23 N         143.6218  139.4010  163.5423 N.ar    1  UNL1       -0.2884
     24 C         143.1853  138.3588  162.5558 C.ar    1  UNL1        0.1932
     25 N         142.0372  137.6035  163.1569 N.ar    1  UNL1       -0.1221
     26 N         141.7641  138.1788  164.5149 N.ar    1  UNL1       -0.1282
     27 C         142.7434  139.2898  164.7532 C.ar    1  UNL1        0.1668
     28 C         142.8292  140.1402  165.9859 C.ar    1  UNL1        0.0360
     29 C         143.1041  141.6099  165.8655 C.ar    1  UNL1        0.0037
     30 C         143.1899  142.4603  167.0982 C.ar    1  UNL1        0.0104
     31 C         143.0009  141.8409  168.4513 C.ar    1  UNL1        0.0685
     32 C         142.7261  140.3712  168.5716 C.ar    1  UNL1        0.0104
     33 C         142.6403  139.5209  167.3389 C.ar    1  UNL1        0.0037
     34 C         143.0868  142.6913  169.6839 C.1     1  UNL1        0.1004
     35 N         143.1727  143.5417  170.9166 N.1     1  UNL1       -0.1908
@<TRIPOS>BOND
     1    22    23    1
     2    23    24   ar
     3    24    21    1
     4    21    20    1
     5    20    19    1
     6    19     1    1
     7     1     2    1
     8     2     3    1
     9     3     4    1
    10     5     4    1
    11     5     6    1
    12     6     7    1
    13     7     9    1
    14     9    10   ar
    15    10    11   ar
    16    11    12   ar
    17    12    15    1
    18    15    16    1
    19    15    17    1
    20    15    18    1
    21    12    13   ar
    22    13    14   ar
    23     5     8    1
    24    24    25   ar
    25    25    26   ar
    26    26    27   ar
    27    27    28    1
    28    28    29   ar
    29    29    30   ar
    30    30    31   ar
    31    31    34    1
    32    34    35    3
    33    31    32   ar
    34    32    33   ar
    35    27    23   ar
    36    33    28   ar
    37     8     2    1
    38     7     5    1
    39    14     9   ar
@<TRIPOS>MOLECULE
*****
 35 39 0 0 0
SMALL
GASTEIGER

@<TRIPOS>ATOM
      1 C         141.5949  143.2184  160.1187 C.3     1  UNL1        0.0730
      2 N         141.0274  143.9197  161.3171 N.3     1  UNL1       -0.2726
      3 C         141.0115  145.4021  161.5457 C.3     1  UNL1        0.0721
      4 C         140.3505  145.6602  162.8671 C.3     1  UNL1        0.0190
      5 C         139.9578  144.3374  163.4553 C.3     1  UNL1        0.0201
      6 C         139.3523  144.8965  164.7086 C.3     1  UNL1        0.0061
      7 C         139.3682  143.4141  164.4800 C.3     1  UNL1        0.0237
      8 C         140.3761  143.2616  162.4973 C.3     1  UNL1        0.0724
      9 C         139.0370  142.0252  164.9396 C.ar    1  UNL1       -0.0225
     10 C         138.1403  141.1545  164.1102 C.ar    1  UNL1       -0.0043
     11 C         137.8091  139.7657  164.5698 C.ar    1  UNL1        0.0035
     12 C         138.3746  139.2475  165.8589 C.ar    1  UNL1        0.0714
     13 C         139.2712  140.1181  166.6883 C.ar    1  UNL1        0.0035
     14 C         139.6024  141.5070  166.2287 C.ar    1  UNL1       -0.0043
     15 C         138.0434  137.8586  166.3185 C.3     1  UNL1        0.4186
     16 F         137.7121  136.4696  166.7781 F       1  UNL1       -0.1659
     17 F         137.2535  138.4250  167.4609 F       1  UNL1       -0.1659
     18 F         138.8332  137.2921  165.1760 F       1  UNL1       -0.1659
     19 C         141.6406  141.7196  160.0786 C.3     1  UNL1        0.0294
     20 C         142.9240  141.0169  159.7482 C.3     1  UNL1        0.0666
     21 S         143.4874  139.9995  160.6956 S.3     1  UNL1       -0.0756
     22 C         141.6324  139.7312  163.3670 C.3     1  UNL1        0.1340
     23 N         143.0267  140.2818  163.3134 N.ar    1  UNL1       -0.2884
     24 C         143.8793  140.4051  162.0855 C.ar    1  UNL1        0.1932
     25 N         145.1927  141.0053  162.4914 N.ar    1  UNL1       -0.1221
     26 N         145.1518  141.2529  163.9703 N.ar    1  UNL1       -0.1282
     27 C         143.8132  140.8057  164.4784 C.ar    1  UNL1        0.1668
     28 C         143.3435  140.8711  165.9014 C.ar    1  UNL1        0.0360
     29 C         143.1495  142.2013  166.5669 C.ar    1  UNL1        0.0037
     30 C         142.6798  142.2667  167.9900 C.ar    1  UNL1        0.0104
     31 C         142.4041  141.0017  168.7475 C.ar    1  UNL1        0.0685
     32 C         142.5980  139.6714  168.0821 C.ar    1  UNL1        0.0104
     33 C         143.0677  139.6062  166.6590 C.ar    1  UNL1        0.0037
     34 C         141.9344  141.0670  170.1706 C.1     1  UNL1        0.1004
     35 N         141.4646  141.1324  171.5937 N.1     1  UNL1       -0.1908
@<TRIPOS>BOND
     1    22    23    1
     2    23    24   ar
     3    24    21    1
     4    21    20    1
     5    20    19    1
     6    19     1    1
     7     1     2    1
     8     2     3    1
     9     3     4    1
    10     5     4    1
    11     5     6    1
    12     6     7    1
    13     7     9    1
    14     9    10   ar
    15    10    11   ar
    16    11    12   ar
    17    12    15    1
    18    15    16    1
    19    15    17    1
    20    15    18    1
    21    12    13   ar
    22    13    14   ar
    23     5     8    1
    24    24    25   ar
    25    25    26   ar
    26    26    27   ar
    27    27    28    1
    28    28    29   ar
    29    29    30   ar
    30    30    31   ar
    31    31    34    1
    32    34    35    3
    33    31    32   ar
    34    32    33   ar
    35    27    23   ar
    36    33    28   ar
    37     8     2    1
    38     7     5    1
    39    14     9   ar
@<TRIPOS>MOLECULE
*****
 35 39 0 0 0
SMALL
GASTEIGER

@<TRIPOS>ATOM
      1 C         143.1957  143.9876  162.0507 C.3     1  UNL1        0.0730
      2 N         141.9208  144.2200  162.8060 N.3     1  UNL1       -0.2726
      3 C         140.8135  145.1479  162.4025 C.3     1  UNL1        0.0721
      4 C         139.7377  145.0665  163.4446 C.3     1  UNL1        0.0190
      5 C         140.1800  144.0883  164.4922 C.3     1  UNL1        0.0201
      6 C         138.9583  144.2171  165.3529 C.3     1  UNL1        0.0061
      7 C         140.0656  143.2892  165.7564 C.3     1  UNL1        0.0237
      8 C         141.5293  143.5651  164.0975 C.3     1  UNL1        0.0724
      9 C         140.6389  142.2922  166.7193 C.ar    1  UNL1       -0.0225
     10 C         140.6479  142.5890  168.1897 C.ar    1  UNL1       -0.0043
     11 C         141.2212  141.5919  169.1526 C.ar    1  UNL1        0.0035
     12 C         141.7854  140.2980  168.6451 C.ar    1  UNL1        0.0714
     13 C         141.7764  140.0012  167.1748 C.ar    1  UNL1        0.0035
     14 C         141.2031  140.9983  166.2119 C.ar    1  UNL1       -0.0043
     15 C         142.3586  139.3009  169.6080 C.3     1  UNL1        0.4186
     16 F         142.9319  138.3038  170.5710 F       1  UNL1       -0.1659
     17 F         141.7189  140.0350  170.7490 F       1  UNL1       -0.1659
     18 F         142.9984  138.5669  168.4671 F       1  UNL1       -0.1659
     19 C         143.1521  143.4278  160.6598 C.3     1  UNL1        0.0294
     20 C         144.1539  142.3953  160.2350 C.3     1  UNL1        0.0666
     21 S         143.7135  140.9850  159.9760 S.3     1  UNL1       -0.0756
     22 C         142.9689  140.3542  163.0900 C.3     1  UNL1        0.1340
     23 N         142.0436  140.2184  161.9173 N.ar    1  UNL1       -0.2884
     24 C         142.3858  140.5083  160.4859 C.ar    1  UNL1        0.1932
     25 N         141.1673  140.2379  159.6540 N.ar    1  UNL1       -0.1221
     26 N         140.0720  139.7808  160.5712 N.ar    1  UNL1       -0.1282
     27 C         140.6135  139.7687  161.9700 C.ar    1  UNL1        0.1668
     28 C         139.8576  139.3759  163.2047 C.ar    1  UNL1        0.0360
     29 C         140.0855  138.0304  163.8273 C.ar    1  UNL1        0.0037
     30 C         139.3296  137.6377  165.0620 C.ar    1  UNL1        0.0104
     31 C         138.3459  138.5905  165.6740 C.ar    1  UNL1        0.0685
     32 C         138.1181  139.9360  165.0514 C.ar    1  UNL1        0.0104
     33 C         138.8740  140.3287  163.8167 C.ar    1  UNL1        0.0037
     34 C         137.5901  138.1978  166.9087 C.1     1  UNL1        0.1004
     35 N         136.8343  137.8050  168.1434 N.1     1  UNL1       -0.1908
@<TRIPOS>BOND
     1    22    23    1
     2    23    24   ar
     3    24    21    1
     4    21    20    1
     5    20    19    1
     6    19     1    1
     7     1     2    1
     8     2     3    1
     9     3     4    1
    10     5     4    1
    11     5     6    1
    12     6     7    1
    13     7     9    1
    14     9    10   ar
    15    10    11   ar
    16    11    12   ar
    17    12    15    1
    18    15    16    1
    19    15    17    1
    20    15    18    1
    21    12    13   ar
    22    13    14   ar
    23     5     8    1
    24    24    25   ar
    25    25    26   ar
    26    26    27   ar
    27    27    28    1
    28    28    29   ar
    29    29    30   ar
    30    30    31   ar
    31    31    34    1
    32    34    35    3
    33    31    32   ar
    34    32    33   ar
    35    27    23   ar
    36    33    28   ar
    37     8     2    1
    38     7     5    1
    39    14     9   ar
@<TRIPOS>MOLECULE
*****
 35 39 0 0 0
SMALL
GASTEIGER

@<TRIPOS>ATOM
      1 C         144.0125  142.8633  162.1830 C.3     1  UNL1        0.0730
      2 N         144.0186  141.5588  162.9234 N.3     1  UNL1       -0.2726
      3 C         144.6312  140.2761  162.4446 C.3     1  UNL1        0.0721
      4 C         144.4043  139.2326  163.4980 C.3     1  UNL1        0.0190
      5 C         143.6514  139.8704  164.6278 C.3     1  UNL1        0.0201
      6 C         143.5787  138.6398  165.4823 C.3     1  UNL1        0.0061
      7 C         142.9661  139.9225  165.9611 C.3     1  UNL1        0.0237
      8 C         143.4130  141.3081  164.2727 C.3     1  UNL1        0.0724
      9 C         142.2167  140.6932  167.0072 C.ar    1  UNL1       -0.0225
     10 C         142.8915  141.0601  168.2957 C.ar    1  UNL1       -0.0043
     11 C         142.1422  141.8308  169.3418 C.ar    1  UNL1        0.0035
     12 C         140.7180  142.2345  169.0996 C.ar    1  UNL1        0.0714
     13 C         140.0432  141.8676  167.8111 C.ar    1  UNL1        0.0035
     14 C         140.7926  141.0970  166.7650 C.ar    1  UNL1       -0.0043
     15 C         139.9686  143.0052  170.1457 C.3     1  UNL1        0.4186
     16 F         139.2193  143.7760  171.1919 F       1  UNL1       -0.1659
     17 F         139.0369  141.8447  170.3333 F       1  UNL1       -0.1659
     18 F         140.9003  144.1657  169.9582 F       1  UNL1       -0.1659
     19 C         144.2345  142.8848  160.6996 C.3     1  UNL1        0.0294
     20 C         143.0928  143.1865  159.7747 C.3     1  UNL1        0.0666
     21 S         142.2825  142.0661  159.1931 S.3     1  UNL1       -0.0756
     22 C         140.4263  142.2881  161.8680 C.3     1  UNL1        0.1340
     23 N         140.9965  141.0255  161.2927 N.ar    1  UNL1       -0.2884
     24 C         141.8497  140.9235  160.0632 C.ar    1  UNL1        0.1932
     25 N         142.1940  139.4783  159.8566 N.ar    1  UNL1       -0.1221
     26 N         141.5537  138.6871  160.9584 N.ar    1  UNL1       -0.1282
     27 C         140.8135  139.6433  161.8460 C.ar    1  UNL1        0.1668
     28 C         140.0283  139.2809  163.0716 C.ar    1  UNL1        0.0360
     29 C         140.4105  138.0752  163.8779 C.ar    1  UNL1        0.0037
     30 C         139.6253  137.7128  165.1035 C.ar    1  UNL1        0.0104
     31 C         138.4579  138.5563  165.5228 C.ar    1  UNL1        0.0685
     32 C         138.0757  139.7620  164.7166 C.ar    1  UNL1        0.0104
     33 C         138.8610  140.1243  163.4909 C.ar    1  UNL1        0.0037
     34 C         137.6727  138.1939  166.7485 C.1     1  UNL1        0.1004
     35 N         136.8875  137.8315  167.9741 N.1     1  UNL1       -0.1908
@<TRIPOS>BOND
     1    22    23    1
     2    23    24   ar
     3    24    21    1
     4    21    20    1
     5    20    19    1
     6    19     1    1
     7     1     2    1
     8     2     3    1
     9     3     4    1
    10     5     4    1
    11     5     6    1
    12     6     7    1
    13     7     9    1
    14     9    10   ar
    15    10    11   ar
    16    11    12   ar
    17    12    15    1
    18    15    16    1
    19    15    17    1
    20    15    18    1
    21    12    13   ar
    22    13    14   ar
    23     5     8    1
    24    24    25   ar
    25    25    26   ar
    26    26    27   ar
    27    27    28    1
    28    28    29   ar
    29    29    30   ar
    30    30    31   ar
    31    31    34    1
    32    34    35    3
    33    31    32   ar
    34    32    33   ar
    35    27    23   ar
    36    33    28   ar
    37     8     2    1
    38     7     5    1
    39    14     9   ar
@<TRIPOS>MOLECULE
*****
 35 39 0 0 0
SMALL
GASTEIGER

@<TRIPOS>ATOM
      1 C         142.4000  143.4571  160.3548 C.3     1  UNL1        0.0730
      2 N         142.5981  141.9824  160.1648 N.3     1  UNL1       -0.2726
      3 C         143.4350  141.3350  159.1015 C.3     1  UNL1        0.0721
      4 C         143.3482  139.8488  159.2844 C.3     1  UNL1        0.0190
      5 C         142.4578  139.5776  160.4606 C.3     1  UNL1        0.0201
      6 C         142.5618  138.0826  160.3946 C.3     1  UNL1        0.0061
      7 C         141.7249  138.7300  161.4579 C.3     1  UNL1        0.0237
      8 C         141.9942  140.8963  161.0048 C.3     1  UNL1        0.0724
      9 C         140.8186  138.6145  162.6475 C.ar    1  UNL1       -0.0225
     10 C         139.5408  139.3986  162.6959 C.ar    1  UNL1       -0.0043
     11 C         138.6345  139.2831  163.8856 C.ar    1  UNL1        0.0035
     12 C         139.0061  138.3834  165.0268 C.ar    1  UNL1        0.0714
     13 C         140.2839  137.5992  164.9784 C.ar    1  UNL1        0.0035
     14 C         141.1902  137.7148  163.7888 C.ar    1  UNL1       -0.0043
     15 C         138.0998  138.2678  166.2165 C.3     1  UNL1        0.4186
     16 F         137.1935  138.1523  167.4062 F       1  UNL1       -0.1659
     17 F         138.1000  136.7749  166.0716 F       1  UNL1       -0.1659
     18 F         138.0996  139.7608  166.3613 F       1  UNL1       -0.1659
     19 C         141.0373  144.0593  160.1804 C.3     1  UNL1        0.0294
     20 C         140.7813  145.4731  160.6115 C.3     1  UNL1        0.0666
     21 S         139.9749  145.7462  161.8464 S.3     1  UNL1       -0.0756
     22 C         142.1066  144.4336  163.9399 C.3     1  UNL1        0.1340
     23 N         140.6697  144.0347  163.7785 N.ar    1  UNL1       -0.2884
     24 C         139.6898  144.6380  162.8163 C.ar    1  UNL1        0.1932
     25 N         138.3748  143.9385  162.9941 N.ar    1  UNL1       -0.1221
     26 N         138.5420  142.9029  164.0662 N.ar    1  UNL1       -0.1282
     27 C         139.9602  142.9623  164.5511 C.ar    1  UNL1        0.1668
     28 C         140.5632  142.1006  165.6207 C.ar    1  UNL1        0.0360
     29 C         141.6493  141.1256  165.2747 C.ar    1  UNL1        0.0037
     30 C         142.2523  140.2639  166.3443 C.ar    1  UNL1        0.0104
     31 C         141.7690  140.3773  167.7599 C.ar    1  UNL1        0.0685
     32 C         140.6829  141.3524  168.1058 C.ar    1  UNL1        0.0104
     33 C         140.0800  142.2140  167.0361 C.ar    1  UNL1        0.0037
     34 C         142.3720  139.5157  168.8294 C.1     1  UNL1        0.1004
     35 N         142.9749  138.6540  169.8990 N.1     1  UNL1       -0.1908
@<TRIPOS>BOND
     1    22    23    1
     2    23    24   ar
     3    24    21    1
     4    21    20    1
     5    20    19    1
     6    19     1    1
     7     1     2    1
     8     2     3    1
     9     3     4    1
    10     5     4    1
    11     5     6    1
    12     6     7    1
    13     7     9    1
    14     9    10   ar
    15    10    11   ar
    16    11    12   ar
    17    12    15    1
    18    15    16    1
    19    15    17    1
    20    15    18    1
    21    12    13   ar
    22    13    14   ar
    23     5     8    1
    24    24    25   ar
    25    25    26   ar
    26    26    27   ar
    27    27    28    1
    28    28    29   ar
    29    29    30   ar
    30    30    31   ar
    31    31    34    1
    32    34    35    3
    33    31    32   ar
    34    32    33   ar
    35    27    23   ar
    36    33    28   ar
    37     8     2    1
    38     7     5    1
    39    14     9   ar
@<TRIPOS>MOLECULE
*****
 35 39 0 0 0
SMALL
GASTEIGER

@<TRIPOS>ATOM
      1 C         141.4394  142.0820  160.5931 C.3     1  UNL1        0.0730
      2 N         140.5746  140.8782  160.8231 N.3     1  UNL1       -0.2726
      3 C         139.9130  140.0518  159.7604 C.3     1  UNL1        0.0721
      4 C         139.1491  138.9523  160.4368 C.3     1  UNL1        0.0190
      5 C         139.3386  139.0991  161.9176 C.3     1  UNL1        0.0201
      6 C         138.4983  137.9173  162.3012 C.3     1  UNL1        0.0061
      7 C         139.1599  138.7437  163.3639 C.3     1  UNL1        0.0237
      8 C         140.2196  140.2894  162.1563 C.3     1  UNL1        0.0724
      9 C         139.4388  139.0156  164.8124 C.ar    1  UNL1       -0.0225
     10 C         138.3168  139.3908  165.7346 C.ar    1  UNL1       -0.0043
     11 C         138.5956  139.6627  167.1831 C.ar    1  UNL1        0.0035
     12 C         139.9964  139.5594  167.7095 C.ar    1  UNL1        0.0714
     13 C         141.1184  139.1842  166.7873 C.ar    1  UNL1        0.0035
     14 C         140.8396  138.9123  165.3387 C.ar    1  UNL1       -0.0043
     15 C         140.2753  139.8313  169.1580 C.3     1  UNL1        0.4186
     16 F         140.5541  140.1033  170.6066 F       1  UNL1       -0.1659
     17 F         141.7010  139.4079  168.9630 F       1  UNL1       -0.1659
     18 F         138.8495  140.2547  169.3530 F       1  UNL1       -0.1659
     19 C         142.6497  141.9789  159.7130 C.3     1  UNL1        0.0294
     20 C         143.8358  142.8627  159.9622 C.3     1  UNL1        0.0666
     21 S         144.8079  142.5234  161.0530 S.3     1  UNL1       -0.0756
     22 C         143.1826  144.2338  163.3075 C.3     1  UNL1        0.1340
     23 N         143.5611  142.7855  163.4029 N.ar    1  UNL1       -0.2884
     24 C         144.3082  141.9993  162.3666 C.ar    1  UNL1        0.1932
     25 N         144.4678  140.5970  162.8745 N.ar    1  UNL1       -0.1221
     26 N         143.8193  140.5164  164.2247 N.ar    1  UNL1       -0.1282
     27 C         143.2590  141.8690  164.5513 C.ar    1  UNL1        0.1668
     28 C         142.5253  142.2399  165.8060 C.ar    1  UNL1        0.0360
     29 C         141.0880  142.6633  165.7370 C.ar    1  UNL1        0.0037
     30 C         140.3543  143.0342  166.9917 C.ar    1  UNL1        0.0104
     31 C         141.0581  142.9818  168.3153 C.ar    1  UNL1        0.0685
     32 C         142.4955  142.5584  168.3843 C.ar    1  UNL1        0.0104
     33 C         143.2291  142.1875  167.1296 C.ar    1  UNL1        0.0037
     34 C         140.3245  143.3527  169.5700 C.1     1  UNL1        0.1004
     35 N         139.5908  143.7236  170.8246 N.1     1  UNL1       -0.1908
@<TRIPOS>BOND
     1    22    23    1
     2    23    24   ar
     3    24    21    1
     4    21    20    1
     5    20    19    1
     6    19     1    1
     7     1     2    1
     8     2     3    1
     9     3     4    1
    10     5     4    1
    11     5     6    1
    12     6     7    1
    13     7     9    1
    14     9    10   ar
    15    10    11   ar
    16    11    12   ar
    17    12    15    1
    18    15    16    1
    19    15    17    1
    20    15    18    1
    21    12    13   ar
    22    13    14   ar
    23     5     8    1
    24    24    25   ar
    25    25    26   ar
    26    26    27   ar
    27    27    28    1
    28    28    29   ar
    29    29    30   ar
    30    30    31   ar
    31    31    34    1
    32    34    35    3
    33    31    32   ar
    34    32    33   ar
    35    27    23   ar
    36    33    28   ar
    37     8     2    1
    38     7     5    1
    39    14     9   ar
@<TRIPOS>MOLECULE
*****
 35 39 0 0 0
SMALL
GASTEIGER

@<TRIPOS>ATOM
      1 C         140.8718  141.6422  158.9157 C.3     1  UNL1        0.0730
      2 N         141.8279  140.7079  159.5962 N.3     1  UNL1       -0.2726
      3 C         143.1936  140.3310  159.1034 C.3     1  UNL1        0.0721
      4 C         143.7959  139.3768  160.0917 C.3     1  UNL1        0.0190
      5 C         142.8025  139.1639  161.1952 C.3     1  UNL1        0.0201
      6 C         143.6495  138.2126  161.9874 C.3     1  UNL1        0.0061
      7 C         142.2838  138.5895  162.4802 C.3     1  UNL1        0.0237
      8 C         141.5862  139.9867  160.8890 C.3     1  UNL1        0.0724
      9 C         141.1959  138.4755  163.5065 C.ar    1  UNL1       -0.0225
     10 C         140.0253  137.5702  163.2613 C.ar    1  UNL1       -0.0043
     11 C         138.9374  137.4562  164.2876 C.ar    1  UNL1        0.0035
     12 C         139.0200  138.2475  165.5592 C.ar    1  UNL1        0.0714
     13 C         140.1906  139.1529  165.8044 C.ar    1  UNL1        0.0035
     14 C         141.2785  139.2669  164.7781 C.ar    1  UNL1       -0.0043
     15 C         137.9321  138.1335  166.5855 C.3     1  UNL1        0.4186
     16 F         136.8441  138.0195  167.6119 F       1  UNL1       -0.1659
     17 F         138.0839  139.5905  166.9083 F       1  UNL1       -0.1659
     18 F         137.7803  136.6766  166.2628 F       1  UNL1       -0.1659
     19 C         141.0992  143.1236  158.9768 C.3     1  UNL1        0.0294
     20 C         140.8871  143.8625  160.2648 C.3     1  UNL1        0.0666
     21 S         142.0660  144.2800  161.0929 S.3     1  UNL1       -0.0756
     22 C         140.7267  144.7045  164.0384 C.3     1  UNL1        0.1340
     23 N         141.7992  143.7147  163.6918 N.ar    1  UNL1       -0.2884
     24 C         142.4148  143.5196  162.3379 C.ar    1  UNL1        0.1932
     25 N         143.4405  142.4305  162.4477 N.ar    1  UNL1       -0.1221
     26 N         143.4588  141.9526  163.8694 N.ar    1  UNL1       -0.1282
     27 C         142.4445  142.7462  164.6384 C.ar    1  UNL1        0.1668
     28 C         142.1305  142.5975  166.0976 C.ar    1  UNL1        0.0360
     29 C         140.7069  142.6488  166.5675 C.ar    1  UNL1        0.0037
     30 C         140.3929  142.5001  168.0267 C.ar    1  UNL1        0.0104
     31 C         141.5027  142.3001  169.0160 C.ar    1  UNL1        0.0685
     32 C         142.9262  142.2488  168.5461 C.ar    1  UNL1        0.0104
     33 C         143.2401  142.3975  167.0868 C.ar    1  UNL1        0.0037
     34 C         141.1887  142.1514  170.4752 C.1     1  UNL1        0.1004
     35 N         140.8747  142.0027  171.9344 N.1     1  UNL1       -0.1908
@<TRIPOS>BOND
     1    22    23    1
     2    23    24   ar
     3    24    21    1
     4    21    20    1
     5    20    19    1
     6    19     1    1
     7     1     2    1
     8     2     3    1
     9     3     4    1
    10     5     4    1
    11     5     6    1
    12     6     7    1
    13     7     9    1
    14     9    10   ar
    15    10    11   ar
    16    11    12   ar
    17    12    15    1
    18    15    16    1
    19    15    17    1
    20    15    18    1
    21    12    13   ar
    22    13    14   ar
    23     5     8    1
    24    24    25   ar
    25    25    26   ar
    26    26    27   ar
    27    27    28    1
    28    28    29   ar
    29    29    30   ar
    30    30    31   ar
    31    31    34    1
    32    34    35    3
    33    31    32   ar
    34    32    33   ar
    35    27    23   ar
    36    33    28   ar
    37     8     2    1
    38     7     5    1
    39    14     9   ar
@<TRIPOS>MOLECULE
*****
 35 39 0 0 0
SMALL
GASTEIGER

@<TRIPOS>ATOM
      1 C         142.0556  137.9828  160.5549 C.3     1  UNL1        0.0730
      2 N         140.9777  138.7306  159.8276 N.3     1  UNL1       -0.2726
      3 C         140.4835  138.4389  158.4417 C.3     1  UNL1        0.0721
      4 C         139.4052  139.4294  158.1162 C.3     1  UNL1        0.0190
      5 C         139.2329  140.3332  159.3008 C.3     1  UNL1        0.0201
      6 C         138.1429  141.1714  158.7014 C.3     1  UNL1        0.0061
      7 C         138.6370  141.4631  160.0873 C.3     1  UNL1        0.0237
      8 C         140.2048  139.9013  160.3586 C.3     1  UNL1        0.0724
      9 C         138.5784  142.2837  161.3415 C.ar    1  UNL1       -0.0225
     10 C         137.7658  141.8105  162.5101 C.ar    1  UNL1       -0.0043
     11 C         137.7071  142.6312  163.7643 C.ar    1  UNL1        0.0035
     12 C         138.4611  143.9251  163.8499 C.ar    1  UNL1        0.0714
     13 C         139.2737  144.3983  162.6812 C.ar    1  UNL1        0.0035
     14 C         139.3323  143.5777  161.4270 C.ar    1  UNL1       -0.0043
     15 C         138.4024  144.7458  165.1040 C.3     1  UNL1        0.4186
     16 F         138.3438  145.5665  166.3583 F       1  UNL1       -0.1659
     17 F         136.9806  144.3183  165.3173 F       1  UNL1       -0.1659
     18 F         139.8243  145.1733  164.8908 F       1  UNL1       -0.1659
     19 C         143.4424  138.5497  160.6294 C.3     1  UNL1        0.0294
     20 C         143.6698  139.8966  161.2492 C.3     1  UNL1        0.0666
     21 S         144.6602  140.0510  162.3651 S.3     1  UNL1       -0.0756
     22 C         142.3970  139.7208  164.6928 C.3     1  UNL1        0.1340
     23 N         143.3512  140.8690  164.5474 N.ar    1  UNL1       -0.2884
     24 C         144.3915  141.0208  163.4774 C.ar    1  UNL1        0.1932
     25 N         145.1159  142.3126  163.7151 N.ar    1  UNL1       -0.1221
     26 N         144.5233  142.9592  164.9320 N.ar    1  UNL1       -0.1282
     27 C         143.4326  142.0671  165.4464 C.ar    1  UNL1        0.1668
     28 C         142.5742  142.3273  166.6486 C.ar    1  UNL1        0.0360
     29 C         141.1161  142.6344  166.4768 C.ar    1  UNL1        0.0037
     30 C         140.2576  142.8946  167.6790 C.ar    1  UNL1        0.0104
     31 C         140.8574  142.8476  169.0531 C.ar    1  UNL1        0.0685
     32 C         142.3156  142.5405  169.2250 C.ar    1  UNL1        0.0104
     33 C         143.1739  142.2803  168.0227 C.ar    1  UNL1        0.0037
     34 C         139.9990  143.1078  170.2554 C.1     1  UNL1        0.1004
     35 N         139.1406  143.3680  171.4576 N.1     1  UNL1       -0.1908
@<TRIPOS>BOND
     1    22    23    1
     2    23    24   ar
     3    24    21    1
     4    21    20    1
     5    20    19    1
     6    19     1    1
     7     1     2    1
     8     2     3    1
     9     3     4    1
    10     5     4    1
    11     5     6    1
    12     6     7    1
    13     7     9    1
    14     9    10   ar
    15    10    11   ar
    16    11    12   ar
    17    12    15    1
    18    15    16    1
    19    15    17    1
    20    15    18    1
    21    12    13   ar
    22    13    14   ar
    23     5     8    1
    24    24    25   ar
    25    25    26   ar
    26    26    27   ar
    27    27    28    1
    28    28    29   ar
    29    29    30   ar
    30    30    31   ar
    31    31    34    1
    32    34    35    3
    33    31    32   ar
    34    32    33   ar
    35    27    23   ar
    36    33    28   ar
    37     8     2    1
    38     7     5    1
    39    14     9   ar
@<TRIPOS>MOLECULE
*****
 35 39 0 0 0
SMALL
GASTEIGER

@<TRIPOS>ATOM
      1 C         140.0419  143.2925  159.2100 C.3     1  UNL1        0.0730
      2 N         140.1023  143.9544  160.5547 N.3     1  UNL1       -0.2726
      3 C         140.4479  145.3905  160.8158 C.3     1  UNL1        0.0721
      4 C         140.3868  145.6200  162.2969 C.3     1  UNL1        0.0190
      5 C         140.0034  144.3258  162.9512 C.3     1  UNL1        0.0201
      6 C         140.0234  144.8487  164.3569 C.3     1  UNL1        0.0061
      7 C         139.6777  143.4127  164.0958 C.3     1  UNL1        0.0237
      8 C         139.8276  143.2964  161.8744 C.3     1  UNL1        0.0724
      9 C         139.2901  142.0564  164.6058 C.ar    1  UNL1       -0.0225
     10 C         139.5475  141.6919  166.0380 C.ar    1  UNL1       -0.0043
     11 C         139.1599  140.3356  166.5480 C.ar    1  UNL1        0.0035
     12 C         138.5149  139.3438  165.6260 C.ar    1  UNL1        0.0714
     13 C         138.2575  139.7082  164.1939 C.ar    1  UNL1        0.0035
     14 C         138.6451  141.0645  163.6838 C.ar    1  UNL1       -0.0043
     15 C         138.1273  137.9875  166.1360 C.3     1  UNL1        0.4186
     16 F         137.7397  136.6311  166.6462 F       1  UNL1       -0.1659
     17 F         138.5960  137.3705  164.8516 F       1  UNL1       -0.1659
     18 F         137.6587  138.6044  167.4204 F       1  UNL1       -0.1659
     19 C         141.2749  143.2072  158.3601 C.3     1  UNL1        0.0294
     20 C         141.4501  142.0637  157.4052 C.3     1  UNL1        0.0666
     21 S         142.1623  140.8198  157.8474 S.3     1  UNL1       -0.0756
     22 C         143.4410  141.3726  160.7985 C.3     1  UNL1        0.1340
     23 N         142.3499  140.3939  160.4795 N.ar    1  UNL1       -0.2884
     24 C         141.7622  140.1398  159.1231 C.ar    1  UNL1        0.1932
     25 N         140.7041  139.0863  159.2662 N.ar    1  UNL1       -0.1221
     26 N         140.6378  138.6893  160.7112 N.ar    1  UNL1       -0.1282
     27 C         141.6550  139.4974  161.4612 C.ar    1  UNL1        0.1668
     28 C         141.9291  139.4222  162.9340 C.ar    1  UNL1        0.0360
     29 C         141.6478  138.1549  163.6855 C.ar    1  UNL1        0.0037
     30 C         141.9219  138.0797  165.1583 C.ar    1  UNL1        0.0104
     31 C         142.4774  139.2719  165.8796 C.ar    1  UNL1        0.0685
     32 C         142.7587  140.5392  165.1281 C.ar    1  UNL1        0.0104
     33 C         142.4845  140.6143  163.6552 C.ar    1  UNL1        0.0037
     34 C         142.7515  139.1968  167.3524 C.1     1  UNL1        0.1004
     35 N         143.0256  139.1216  168.8252 N.1     1  UNL1       -0.1908
@<TRIPOS>BOND
     1    22    23    1
     2    23    24   ar
     3    24    21    1
     4    21    20    1
     5    20    19    1
     6    19     1    1
     7     1     2    1
     8     2     3    1
     9     3     4    1
    10     5     4    1
    11     5     6    1
    12     6     7    1
    13     7     9    1
    14     9    10   ar
    15    10    11   ar
    16    11    12   ar
    17    12    15    1
    18    15    16    1
    19    15    17    1
    20    15    18    1
    21    12    13   ar
    22    13    14   ar
    23     5     8    1
    24    24    25   ar
    25    25    26   ar
    26    26    27   ar
    27    27    28    1
    28    28    29   ar
    29    29    30   ar
    30    30    31   ar
    31    31    34    1
    32    34    35    3
    33    31    32   ar
    34    32    33   ar
    35    27    23   ar
    36    33    28   ar
    37     8     2    1
    38     7     5    1
    39    14     9   ar
