@<TRIPOS>MOLECULE
*****
 28 30 0 0 0
SMALL
GASTEIGER

@<TRIPOS>ATOM
      1 C         138.6031  143.7955  163.3702 C.3     1  UNL1        0.0971
      2 N         140.0937  143.9438  163.2900 N.ar    1  UNL1       -0.3013
      3 C         140.8350  145.1670  162.8381 C.ar    1  UNL1        0.1946
      4 N         140.2159  146.4567  162.3870 N.pl3   1  UNL1       -0.3288
      5 N         142.3040  144.8740  162.9165 N.ar    1  UNL1       -0.2139
      6 C         142.4706  143.4698  163.4168 C.ar    1  UNL1        0.1007
      7 C         143.6897  142.6404  163.6921 C.ar    1  UNL1        0.0321
      8 C         143.5427  141.2360  164.1981 C.ar    1  UNL1        0.0593
      9 CL        144.7619  140.4065  164.4734 Cl      1  UNL1       -0.0822
     10 C         142.1766  140.6611  164.4290 C.ar    1  UNL1        0.0130
     11 C         140.9575  141.4905  164.1538 C.ar    1  UNL1        0.0197
     12 C         141.1045  142.8949  163.6477 C.ar    1  UNL1        0.0798
     13 H         139.2363  146.5532  162.3702 H       1  UNL1        0.1451
     14 H         140.7893  147.2067  162.1078 H       1  UNL1        0.1451
     15 C         138.6082  144.9893  165.6778 C.3     1  UNL1        0.0020
     16 C         137.8615  144.3103  164.5680 C.3     1  UNL1        0.0232
     17 C         137.8542  143.1323  162.2524 C.3     1  UNL1        0.1076
     18 C         138.1872  141.7238  161.8584 C.2     1  UNL1        0.2244
     19 O         139.2336  141.4642  160.8155 O.2     1  UNL1       -0.2750
     20 N         137.4738  140.5750  162.5074 N.am    1  UNL1       -0.3043
     21 H         136.7871  140.7454  163.1919 H       1  UNL1        0.1494
     22 C         137.8069  139.1665  162.1134 C.3     1  UNL1        0.0893
     23 C         138.9597  138.4589  162.7620 C.3     1  UNL1        0.0196
     24 C         138.8986  138.1041  164.2181 C.3     1  UNL1        0.0017
     25 C         140.0513  137.3966  164.8666 C.3     1  UNL1        0.0001
     26 C         141.2651  137.0438  164.0590 C.3     1  UNL1        0.0000
     27 C         141.3262  137.3986  162.6028 C.3     1  UNL1        0.0001
     28 C         140.1735  138.1061  161.9544 C.3     1  UNL1        0.0017
@<TRIPOS>BOND
     1    15    16    1
     2     1    16    1
     3     1    17    1
     4    17    18    1
     5    18    19    2
     6    18    20   am
     7    20    22    1
     8    22    23    1
     9    23    24    1
    10    24    25    1
    11    25    26    1
    12    26    27    1
    13    27    28    1
    14     1     2    1
    15     2     3   ar
    16     3     4    1
    17     3     5   ar
    18     5     6   ar
    19     6     7   ar
    20     7     8   ar
    21     8     9    1
    22     8    10   ar
    23    10    11   ar
    24    11    12   ar
    25    28    23    1
    26    12     2   ar
    27    12     6   ar
    28    20    21    1
    29     4    13    1
    30     4    14    1
@<TRIPOS>MOLECULE
*****
 28 30 0 0 0
SMALL
GASTEIGER

@<TRIPOS>ATOM
      1 C         139.0179  138.2226  164.4461 C.3     1  UNL1        0.0971
      2 N         139.2984  139.6553  164.7905 N.ar    1  UNL1       -0.3013
      3 C         138.4840  140.8404  164.3637 C.ar    1  UNL1        0.1946
      4 N         137.2461  140.8009  163.5174 N.pl3   1  UNL1       -0.3288
      5 N         139.1248  142.0720  164.9316 N.ar    1  UNL1       -0.2139
      6 C         140.3353  141.6480  165.7095 C.ar    1  UNL1        0.1007
      7 C         141.3536  142.4291  166.4860 C.ar    1  UNL1        0.0321
      8 C         142.4793  141.7165  167.1752 C.ar    1  UNL1        0.0593
      9 CL        143.4977  142.4975  167.9517 Cl      1  UNL1       -0.0822
     10 C         142.5865  140.2229  167.0880 C.ar    1  UNL1        0.0130
     11 C         141.5682  139.4418  166.3115 C.ar    1  UNL1        0.0197
     12 C         140.4426  140.1544  165.6223 C.ar    1  UNL1        0.0798
     13 H         136.9009  139.9390  163.1901 H       1  UNL1        0.1451
     14 H         136.7789  141.6369  163.2893 H       1  UNL1        0.1451
     15 C         137.7356  137.8465  166.6741 C.3     1  UNL1        0.0020
     16 C         138.4703  137.2939  165.4889 C.3     1  UNL1        0.0232
     17 C         139.2851  137.7186  163.0587 C.3     1  UNL1        0.1076
     18 C         140.5342  138.1318  162.3382 C.2     1  UNL1        0.2244
     19 O         140.4589  139.1221  161.2141 O.2     1  UNL1       -0.2750
     20 N         141.8585  137.5547  162.7419 N.am    1  UNL1       -0.3043
     21 H         141.9080  136.9047  163.4797 H       1  UNL1        0.1494
     22 C         143.1076  137.9679  162.0214 C.3     1  UNL1        0.0893
     23 C         143.8649  139.1828  162.4695 C.3     1  UNL1        0.0196
     24 C         144.4094  139.2545  163.8653 C.3     1  UNL1        0.0017
     25 C         145.1666  140.4694  164.3134 C.3     1  UNL1        0.0001
     26 C         145.3793  141.6124  163.3656 C.3     1  UNL1        0.0000
     27 C         144.8348  141.5407  161.9698 C.3     1  UNL1        0.0001
     28 C         144.0776  140.3258  161.5218 C.3     1  UNL1        0.0017
@<TRIPOS>BOND
     1    15    16    1
     2     1    16    1
     3     1    17    1
     4    17    18    1
     5    18    19    2
     6    18    20   am
     7    20    22    1
     8    22    23    1
     9    23    24    1
    10    24    25    1
    11    25    26    1
    12    26    27    1
    13    27    28    1
    14     1     2    1
    15     2     3   ar
    16     3     4    1
    17     3     5   ar
    18     5     6   ar
    19     6     7   ar
    20     7     8   ar
    21     8     9    1
    22     8    10   ar
    23    10    11   ar
    24    11    12   ar
    25    28    23    1
    26    12     2   ar
    27    12     6   ar
    28    20    21    1
    29     4    13    1
    30     4    14    1
@<TRIPOS>MOLECULE
*****
 28 30 0 0 0
SMALL
GASTEIGER

@<TRIPOS>ATOM
      1 C         139.3866  137.8495  164.8035 C.3     1  UNL1        0.0971
      2 N         138.9837  139.0298  163.9701 N.ar    1  UNL1       -0.3013
      3 C         138.3290  138.9747  162.6216 C.ar    1  UNL1        0.1946
      4 N         137.9622  137.7296  161.8698 N.pl3   1  UNL1       -0.3288
      5 N         138.1055  140.3833  162.1570 N.ar    1  UNL1       -0.2139
      6 C         138.6221  141.3090  163.2183 C.ar    1  UNL1        0.1007
      7 C         138.6684  142.8055  163.3091 C.ar    1  UNL1        0.0321
      8 C         139.2574  143.4654  164.5204 C.ar    1  UNL1        0.0593
      9 CL        139.3037  144.9620  164.6113 Cl      1  UNL1       -0.0822
     10 C         139.8001  142.6289  165.6410 C.ar    1  UNL1        0.0130
     11 C         139.7539  141.1324  165.5502 C.ar    1  UNL1        0.0197
     12 C         139.1648  140.4724  164.3388 C.ar    1  UNL1        0.0798
     13 H         138.1504  136.8455  162.2600 H       1  UNL1        0.1451
     14 H         137.5334  137.7965  160.9861 H       1  UNL1        0.1451
     15 C         137.7416  138.1875  166.7858 C.3     1  UNL1        0.0020
     16 C         138.4308  137.2807  165.8098 C.3     1  UNL1        0.0232
     17 C         140.7454  137.2379  164.6305 C.3     1  UNL1        0.1076
     18 C         141.9019  138.0900  164.1986 C.2     1  UNL1        0.2244
     19 O         142.4189  137.9964  162.7937 O.2     1  UNL1       -0.2750
     20 N         142.5412  139.0356  165.1717 N.am    1  UNL1       -0.3043
     21 H         142.2018  139.0970  166.0938 H       1  UNL1        0.1494
     22 C         143.6977  139.8877  164.7398 C.3     1  UNL1        0.0893
     23 C         143.4695  141.3158  164.3413 C.3     1  UNL1        0.0196
     24 C         144.0909  142.4250  165.1373 C.3     1  UNL1        0.0017
     25 C         143.8627  143.8529  164.7388 C.3     1  UNL1        0.0001
     26 C         143.0131  144.1717  163.5443 C.3     1  UNL1        0.0000
     27 C         142.3918  143.0625  162.7484 C.3     1  UNL1        0.0001
     28 C         142.6200  141.6345  163.1469 C.3     1  UNL1        0.0017
@<TRIPOS>BOND
     1    15    16    1
     2     1    16    1
     3     1    17    1
     4    17    18    1
     5    18    19    2
     6    18    20   am
     7    20    22    1
     8    22    23    1
     9    23    24    1
    10    24    25    1
    11    25    26    1
    12    26    27    1
    13    27    28    1
    14     1     2    1
    15     2     3   ar
    16     3     4    1
    17     3     5   ar
    18     5     6   ar
    19     6     7   ar
    20     7     8   ar
    21     8     9    1
    22     8    10   ar
    23    10    11   ar
    24    11    12   ar
    25    28    23    1
    26    12     2   ar
    27    12     6   ar
    28    20    21    1
    29     4    13    1
    30     4    14    1
@<TRIPOS>MOLECULE
*****
 28 30 0 0 0
SMALL
GASTEIGER

@<TRIPOS>ATOM
      1 C         139.1517  139.5164  165.2917 C.3     1  UNL1        0.0971
      2 N         139.3515  140.8068  164.5533 N.ar    1  UNL1       -0.3013
      3 C         138.3739  141.4435  163.6105 C.ar    1  UNL1        0.1946
      4 N         137.0250  140.9017  163.2404 N.pl3   1  UNL1       -0.3288
      5 N         138.9822  142.7171  163.1026 N.ar    1  UNL1       -0.2139
      6 C         140.3356  142.8675  163.7316 C.ar    1  UNL1        0.1007
      7 C         141.3897  143.9270  163.6037 C.ar    1  UNL1        0.0321
      8 C         142.6720  143.8058  164.3725 C.ar    1  UNL1        0.0593
      9 CL        143.7261  144.8654  164.2446 Cl      1  UNL1       -0.0822
     10 C         142.9002  142.6251  165.2691 C.ar    1  UNL1        0.0130
     11 C         141.8461  141.5656  165.3969 C.ar    1  UNL1        0.0197
     12 C         140.5639  141.6868  164.6282 C.ar    1  UNL1        0.0798
     13 H         136.7121  140.0528  163.6286 H       1  UNL1        0.1451
     14 H         136.4526  141.3950  162.6094 H       1  UNL1        0.1451
     15 C         137.5876  138.3112  166.9802 C.3     1  UNL1        0.0020
     16 C         138.4098  139.5053  166.5952 C.3     1  UNL1        0.0232
     17 C         139.6940  138.2371  164.7264 C.3     1  UNL1        0.1076
     18 C         141.1292  138.1553  164.2981 C.2     1  UNL1        0.2244
     19 O         142.1824  137.7366  165.2807 O.2     1  UNL1       -0.2750
     20 N         141.5111  138.4921  162.8873 N.am    1  UNL1       -0.3043
     21 H         140.8198  138.7669  162.2424 H       1  UNL1        0.1494
     22 C         142.9463  138.4103  162.4590 C.3     1  UNL1        0.0893
     23 C         143.8606  139.5802  162.6724 C.3     1  UNL1        0.0196
     24 C         143.8755  140.7102  161.6860 C.3     1  UNL1        0.0017
     25 C         144.7898  141.8800  161.8995 C.3     1  UNL1        0.0001
     26 C         145.6891  141.9199  163.0993 C.3     1  UNL1        0.0000
     27 C         145.6743  140.7899  164.0857 C.3     1  UNL1        0.0001
     28 C         144.7600  139.6201  163.8722 C.3     1  UNL1        0.0017
@<TRIPOS>BOND
     1    15    16    1
     2     1    16    1
     3     1    17    1
     4    17    18    1
     5    18    19    2
     6    18    20   am
     7    20    22    1
     8    22    23    1
     9    23    24    1
    10    24    25    1
    11    25    26    1
    12    26    27    1
    13    27    28    1
    14     1     2    1
    15     2     3   ar
    16     3     4    1
    17     3     5   ar
    18     5     6   ar
    19     6     7   ar
    20     7     8   ar
    21     8     9    1
    22     8    10   ar
    23    10    11   ar
    24    11    12   ar
    25    28    23    1
    26    12     2   ar
    27    12     6   ar
    28    20    21    1
    29     4    13    1
    30     4    14    1
@<TRIPOS>MOLECULE
*****
 28 30 0 0 0
SMALL
GASTEIGER

@<TRIPOS>ATOM
      1 C         141.2520  144.7793  163.1269 C.3     1  UNL1        0.0971
      2 N         141.5804  143.7565  162.0799 N.ar    1  UNL1       -0.3013
      3 C         141.8013  144.0274  160.6213 C.ar    1  UNL1        0.1946
      4 N         141.7325  145.3687  159.9533 N.pl3   1  UNL1       -0.3288
      5 N         142.1030  142.7215  159.9478 N.ar    1  UNL1       -0.2139
      6 C         142.0686  141.6435  160.9902 C.ar    1  UNL1        0.1007
      7 C         142.2896  140.1621  160.9097 C.ar    1  UNL1        0.0321
      8 C         142.1877  139.3203  162.1470 C.ar    1  UNL1        0.0593
      9 CL        142.4087  137.8388  162.0666 Cl      1  UNL1       -0.0822
     10 C         141.8647  139.9599  163.4648 C.ar    1  UNL1        0.0130
     11 C         141.6437  141.4413  163.5453 C.ar    1  UNL1        0.0197
     12 C         141.7456  142.2831  162.3080 C.ar    1  UNL1        0.0798
     13 H         141.5264  146.1725  160.4832 H       1  UNL1        0.1451
     14 H         141.8936  145.4453  158.9851 H       1  UNL1        0.1451
     15 C         143.7151  144.8371  163.9514 C.3     1  UNL1        0.0020
     16 C         142.3548  145.4650  163.8775 C.3     1  UNL1        0.0232
     17 C         139.8207  145.1164  163.4231 C.3     1  UNL1        0.1076
     18 C         138.7766  144.0396  163.4019 C.2     1  UNL1        0.2244
     19 O         137.7567  144.0054  162.3026 O.2     1  UNL1       -0.2750
     20 N         138.7527  142.9969  164.4800 N.am    1  UNL1       -0.3043
     21 H         139.4221  143.0194  165.2015 H       1  UNL1        0.1494
     22 C         137.7087  141.9201  164.4587 C.3     1  UNL1        0.0893
     23 C         138.0997  140.5020  164.1648 C.3     1  UNL1        0.0196
     24 C         138.1437  140.0146  162.7469 C.3     1  UNL1        0.0017
     25 C         138.5347  138.5966  162.4531 C.3     1  UNL1        0.0001
     26 C         138.8817  137.6660  163.5772 C.3     1  UNL1        0.0000
     27 C         138.8377  138.1534  164.9951 C.3     1  UNL1        0.0001
     28 C         138.4467  139.5714  165.2889 C.3     1  UNL1        0.0017
@<TRIPOS>BOND
     1    15    16    1
     2     1    16    1
     3     1    17    1
     4    17    18    1
     5    18    19    2
     6    18    20   am
     7    20    22    1
     8    22    23    1
     9    23    24    1
    10    24    25    1
    11    25    26    1
    12    26    27    1
    13    27    28    1
    14     1     2    1
    15     2     3   ar
    16     3     4    1
    17     3     5   ar
    18     5     6   ar
    19     6     7   ar
    20     7     8   ar
    21     8     9    1
    22     8    10   ar
    23    10    11   ar
    24    11    12   ar
    25    28    23    1
    26    12     2   ar
    27    12     6   ar
    28    20    21    1
    29     4    13    1
    30     4    14    1
@<TRIPOS>MOLECULE
*****
 28 30 0 0 0
SMALL
GASTEIGER

@<TRIPOS>ATOM
      1 C         138.9180  143.4872  163.0274 C.3     1  UNL1        0.0971
      2 N         140.2972  143.7401  162.4946 N.ar    1  UNL1       -0.3013
      3 C         140.6478  144.6414  161.3480 C.ar    1  UNL1        0.1946
      4 N         139.6809  145.4482  160.5330 N.pl3   1  UNL1       -0.3288
      5 N         142.1352  144.5944  161.1597 N.ar    1  UNL1       -0.2139
      6 C         142.7038  143.6640  162.1897 C.ar    1  UNL1        0.1007
      7 C         144.1091  143.2294  162.4830 C.ar    1  UNL1        0.0321
      8 C         144.3785  142.2667  163.6014 C.ar    1  UNL1        0.0593
      9 CL        145.7839  141.8321  163.8947 Cl      1  UNL1       -0.0822
     10 C         143.2425  141.7387  164.4264 C.ar    1  UNL1        0.0130
     11 C         141.8371  142.1734  164.1331 C.ar    1  UNL1        0.0197
     12 C         141.5678  143.1360  163.0148 C.ar    1  UNL1        0.0798
     13 H         138.7179  145.4128  160.7345 H       1  UNL1        0.1451
     14 H         140.0093  146.0130  159.7966 H       1  UNL1        0.1451
     15 C         138.8281  144.8224  165.2543 C.3     1  UNL1        0.0020
     16 C         138.2543  144.5067  163.9048 C.3     1  UNL1        0.0232
     17 C         138.2024  142.2146  162.6828 C.3     1  UNL1        0.1076
     18 C         138.5984  140.9284  163.3453 C.2     1  UNL1        0.2244
     19 O         139.1074  139.7848  162.5190 O.2     1  UNL1       -0.2750
     20 N         138.4853  140.7861  164.8342 N.am    1  UNL1       -0.3043
     21 H         138.1512  141.5367  165.3766 H       1  UNL1        0.1494
     22 C         138.8813  139.4999  165.4968 C.3     1  UNL1        0.0893
     23 C         140.3090  139.2703  165.8959 C.3     1  UNL1        0.0196
     24 C         140.8501  139.9033  167.1434 C.3     1  UNL1        0.0017
     25 C         142.2777  139.6737  167.5424 C.3     1  UNL1        0.0001
     26 C         143.1641  138.8111  166.6939 C.3     1  UNL1        0.0000
     27 C         142.6230  138.1780  165.4463 C.3     1  UNL1        0.0001
     28 C         141.1955  138.4077  165.0473 C.3     1  UNL1        0.0017
@<TRIPOS>BOND
     1    15    16    1
     2     1    16    1
     3     1    17    1
     4    17    18    1
     5    18    19    2
     6    18    20   am
     7    20    22    1
     8    22    23    1
     9    23    24    1
    10    24    25    1
    11    25    26    1
    12    26    27    1
    13    27    28    1
    14     1     2    1
    15     2     3   ar
    16     3     4    1
    17     3     5   ar
    18     5     6   ar
    19     6     7   ar
    20     7     8   ar
    21     8     9    1
    22     8    10   ar
    23    10    11   ar
    24    11    12   ar
    25    28    23    1
    26    12     2   ar
    27    12     6   ar
    28    20    21    1
    29     4    13    1
    30     4    14    1
@<TRIPOS>MOLECULE
*****
 28 30 0 0 0
SMALL
GASTEIGER

@<TRIPOS>ATOM
      1 C         143.6101  140.1533  162.7199 C.3     1  UNL1        0.0971
      2 N         142.5096  139.1619  162.9565 N.ar    1  UNL1       -0.3013
      3 C         142.3296  137.8566  162.2398 C.ar    1  UNL1        0.1946
      4 N         143.2186  137.3134  161.1605 N.pl3   1  UNL1       -0.3288
      5 N         141.1046  137.1898  162.7918 N.ar    1  UNL1       -0.2139
      6 C         140.5275  138.0830  163.8497 C.ar    1  UNL1        0.1007
      7 C         139.3235  137.9439  164.7334 C.ar    1  UNL1        0.0321
      8 C         138.9878  139.0237  165.7189 C.ar    1  UNL1        0.0593
      9 CL        137.7838  138.8847  166.6027 Cl      1  UNL1       -0.0822
     10 C         139.8562  140.2426  165.8207 C.ar    1  UNL1        0.0130
     11 C         141.0602  140.3816  164.9370 C.ar    1  UNL1        0.0197
     12 C         141.3958  139.3018  163.9515 C.ar    1  UNL1        0.0798
     13 H         144.0039  137.8280  160.8643 H       1  UNL1        0.1451
     14 H         143.0167  136.4424  160.7485 H       1  UNL1        0.1451
     15 C         145.6820  141.4177  163.6466 C.3     1  UNL1        0.0020
     16 C         144.7699  140.2270  163.6682 C.3     1  UNL1        0.0232
     17 C         143.5509  141.0710  161.5348 C.3     1  UNL1        0.1076
     18 C         142.5328  142.1717  161.4888 C.2     1  UNL1        0.2244
     19 O         141.3610  142.0709  160.5578 O.2     1  UNL1       -0.2750
     20 N         142.6866  143.3730  162.3736 N.am    1  UNL1       -0.3043
     21 H         143.4557  143.4391  162.9846 H       1  UNL1        0.1494
     22 C         141.6685  144.4736  162.3276 C.3     1  UNL1        0.0893
     23 C         140.3890  144.3446  163.0999 C.3     1  UNL1        0.0196
     24 C         140.4157  144.3371  164.5996 C.3     1  UNL1        0.0017
     25 C         139.1363  144.2081  165.3718 C.3     1  UNL1        0.0001
     26 C         137.8301  144.0865  164.6443 C.3     1  UNL1        0.0000
     27 C         137.8034  144.0940  163.1446 C.3     1  UNL1        0.0001
     28 C         139.0829  144.2230  162.3724 C.3     1  UNL1        0.0017
@<TRIPOS>BOND
     1    15    16    1
     2     1    16    1
     3     1    17    1
     4    17    18    1
     5    18    19    2
     6    18    20   am
     7    20    22    1
     8    22    23    1
     9    23    24    1
    10    24    25    1
    11    25    26    1
    12    26    27    1
    13    27    28    1
    14     1     2    1
    15     2     3   ar
    16     3     4    1
    17     3     5   ar
    18     5     6   ar
    19     6     7   ar
    20     7     8   ar
    21     8     9    1
    22     8    10   ar
    23    10    11   ar
    24    11    12   ar
    25    28    23    1
    26    12     2   ar
    27    12     6   ar
    28    20    21    1
    29     4    13    1
    30     4    14    1
@<TRIPOS>MOLECULE
*****
 28 30 0 0 0
SMALL
GASTEIGER

@<TRIPOS>ATOM
      1 C         138.8598  143.4884  163.8078 C.3     1  UNL1        0.0971
      2 N         139.0560  142.0363  164.1286 N.ar    1  UNL1       -0.3013
      3 C         138.1380  140.9155  163.7396 C.ar    1  UNL1        0.1946
      4 N         136.8627  141.0501  162.9615 N.pl3   1  UNL1       -0.3288
      5 N         138.7194  139.6366  164.2652 N.ar    1  UNL1       -0.2139
      6 C         139.9966  139.9669  164.9791 C.ar    1  UNL1        0.1007
      7 C         140.9970  139.1088  165.6952 C.ar    1  UNL1        0.0321
      8 C         142.2055  139.7338  166.3267 C.ar    1  UNL1        0.0593
      9 CL        143.2060  138.8757  167.0428 Cl      1  UNL1       -0.0822
     10 C         142.4135  141.2169  166.2423 C.ar    1  UNL1        0.0130
     11 C         141.4131  142.0750  165.5262 C.ar    1  UNL1        0.0197
     12 C         140.2046  141.4500  164.8947 C.ar    1  UNL1        0.0798
     13 H         136.5624  141.9373  162.6582 H       1  UNL1        0.1451
     14 H         136.3259  140.2513  162.7542 H       1  UNL1        0.1451
     15 C         138.6329  145.0800  165.8487 C.3     1  UNL1        0.0020
     16 C         138.0102  144.3451  164.6988 C.3     1  UNL1        0.0232
     17 C         139.5132  144.0837  162.5959 C.3     1  UNL1        0.1076
     18 C         140.9597  143.8066  162.3114 C.2     1  UNL1        0.2244
     19 O         142.0155  144.7508  162.8053 O.2     1  UNL1       -0.2750
     20 N         141.3503  142.5854  161.5330 N.am    1  UNL1       -0.3043
     21 H         140.6573  141.9658  161.2088 H       1  UNL1        0.1494
     22 C         142.7968  142.3083  161.2485 C.3     1  UNL1        0.0893
     23 C         143.6155  141.5184  162.2261 C.3     1  UNL1        0.0196
     24 C         144.6961  142.1936  163.0175 C.3     1  UNL1        0.0017
     25 C         145.5148  141.4037  163.9951 C.3     1  UNL1        0.0001
     26 C         145.2529  139.9385  164.1813 C.3     1  UNL1        0.0000
     27 C         144.1723  139.2633  163.3900 C.3     1  UNL1        0.0001
     28 C         143.3536  140.0532  162.4124 C.3     1  UNL1        0.0017
@<TRIPOS>BOND
     1    15    16    1
     2     1    16    1
     3     1    17    1
     4    17    18    1
     5    18    19    2
     6    18    20   am
     7    20    22    1
     8    22    23    1
     9    23    24    1
    10    24    25    1
    11    25    26    1
    12    26    27    1
    13    27    28    1
    14     1     2    1
    15     2     3   ar
    16     3     4    1
    17     3     5   ar
    18     5     6   ar
    19     6     7   ar
    20     7     8   ar
    21     8     9    1
    22     8    10   ar
    23    10    11   ar
    24    11    12   ar
    25    28    23    1
    26    12     2   ar
    27    12     6   ar
    28    20    21    1
    29     4    13    1
    30     4    14    1
@<TRIPOS>MOLECULE
*****
 28 30 0 0 0
SMALL
GASTEIGER

@<TRIPOS>ATOM
      1 C         141.2724  144.2304  163.8655 C.3     1  UNL1        0.0971
      2 N         139.9530  143.5241  163.9672 N.ar    1  UNL1       -0.3013
      3 C         138.7582  143.9952  164.7421 C.ar    1  UNL1        0.1946
      4 N         138.6729  145.2554  165.5513 N.pl3   1  UNL1       -0.3288
      5 N         137.6636  142.9849  164.5657 N.ar    1  UNL1       -0.2139
      6 C         138.1819  141.8894  163.6818 C.ar    1  UNL1        0.1007
      7 C         137.5482  140.6315  163.1660 C.ar    1  UNL1        0.0321
      8 C         138.3295  139.7068  162.2803 C.ar    1  UNL1        0.0593
      9 CL        137.6959  138.4488  161.7645 Cl      1  UNL1       -0.0822
     10 C         139.7445  140.0401  161.9105 C.ar    1  UNL1        0.0130
     11 C         140.3782  141.2980  162.4263 C.ar    1  UNL1        0.0197
     12 C         139.5968  142.2226  163.3119 C.ar    1  UNL1        0.0798
     13 H         139.4492  145.8583  165.6066 H       1  UNL1        0.1451
     14 H         137.8407  145.4795  166.0270 H       1  UNL1        0.1451
     15 C         140.2752  145.8595  162.1044 C.3     1  UNL1        0.0020
     16 C         141.4075  145.4458  162.9970 C.3     1  UNL1        0.0232
     17 C         142.4568  143.7212  164.6323 C.3     1  UNL1        0.1076
     18 C         142.4574  142.3201  165.1681 C.2     1  UNL1        0.2244
     19 O         143.3003  141.2667  164.5124 O.2     1  UNL1       -0.2750
     20 N         141.6151  141.9725  166.3596 N.am    1  UNL1       -0.3043
     21 H         141.0619  142.6639  166.7900 H       1  UNL1        0.1494
     22 C         141.6157  140.5715  166.8954 C.3     1  UNL1        0.0893
     23 C         140.6477  139.5612  166.3545 C.3     1  UNL1        0.0196
     24 C         141.0976  138.5680  165.3244 C.3     1  UNL1        0.0017
     25 C         140.1296  137.5578  164.7836 C.3     1  UNL1        0.0001
     26 C         138.7118  137.5408  165.2729 C.3     1  UNL1        0.0000
     27 C         138.2619  138.5341  166.3030 C.3     1  UNL1        0.0001
     28 C         139.2299  139.5442  166.8438 C.3     1  UNL1        0.0017
@<TRIPOS>BOND
     1    15    16    1
     2     1    16    1
     3     1    17    1
     4    17    18    1
     5    18    19    2
     6    18    20   am
     7    20    22    1
     8    22    23    1
     9    23    24    1
    10    24    25    1
    11    25    26    1
    12    26    27    1
    13    27    28    1
    14     1     2    1
    15     2     3   ar
    16     3     4    1
    17     3     5   ar
    18     5     6   ar
    19     6     7   ar
    20     7     8   ar
    21     8     9    1
    22     8    10   ar
    23    10    11   ar
    24    11    12   ar
    25    28    23    1
    26    12     2   ar
    27    12     6   ar
    28    20    21    1
    29     4    13    1
    30     4    14    1
