@<TRIPOS>MOLECULE
*****
 35 38 0 0 0
SMALL
GASTEIGER

@<TRIPOS>ATOM
      1 C         144.0560  141.5851  157.6374 C.3     1  UNL1        0.0317
      2 C         144.0568  141.3997  159.1259 C.ar    1  UNL1       -0.0142
      3 C         144.5008  142.5186  160.0207 C.ar    1  UNL1       -0.0035
      4 C         144.5017  142.3333  161.5092 C.ar    1  UNL1        0.0042
      5 C         144.0585  141.0290  162.1029 C.ar    1  UNL1        0.0543
      6 C         143.6144  139.9101  161.2080 C.ar    1  UNL1        0.0124
      7 C         143.6136  140.0955  159.7195 C.ar    1  UNL1        0.0381
      8 C         144.0593  140.8437  163.5914 C.2     1  UNL1        0.2495
      9 O         145.2881  140.3318  164.2827 O.2     1  UNL1       -0.2698
     10 N         142.8314  141.1702  164.3885 N.am    1  UNL1       -0.2804
     11 H         142.0249  141.5062  163.9348 H       1  UNL1        0.1552
     12 C         142.8322  140.9849  165.8770 C.ar    1  UNL1        0.0506
     13 C         142.6378  139.6176  166.4627 C.ar    1  UNL1        0.0155
     14 C         142.6386  139.4323  167.9512 C.ar    1  UNL1        0.0127
     15 C         142.8339  140.6142  168.8540 C.ar    1  UNL1        0.0578
     16 CL        142.8347  140.4288  170.3425 Cl      1  UNL1       -0.0822
     17 C         143.0283  141.9813  168.2684 C.ar    1  UNL1        0.0127
     18 C         143.0274  142.1667  166.7799 C.ar    1  UNL1        0.0155
     19 C         143.1695  138.9765  158.8246 C.1     1  UNL1       -0.0600
     20 C         142.7254  137.8575  157.9298 C.1     1  UNL1       -0.0570
     21 C         142.2813  136.7385  157.0349 C.ar    1  UNL1        0.0731
     22 C         143.0962  135.4825  156.9440 C.ar    1  UNL1        0.0127
     23 C         142.6522  134.3635  156.0492 C.ar    1  UNL1        0.0229
     24 C         141.3933  134.5006  155.2453 C.ar    1  UNL1        0.1004
     25 N         140.5784  135.7567  155.3362 N.ar    1  UNL1       -0.2290
     26 C         141.0224  136.8757  156.2311 C.ar    1  UNL1        0.1330
     27 N         140.2075  138.1317  156.3220 N.pl3   1  UNL1       -0.3421
     28 H         139.3812  138.2217  155.7943 H       1  UNL1        0.1437
     29 H         140.4990  138.8661  156.9093 H       1  UNL1        0.1437
     30 C         143.4671  133.1075  155.9583 C.ar    1  UNL1        0.0412
     31 C         144.5134  132.6625  156.9367 C.ar    1  UNL1        0.1217
     32 N         145.0717  131.3559  156.4561 N.ar    1  UNL1       -0.1676
     33 N         144.3704  130.9932  155.1807 N.ar    1  UNL1       -0.2473
     34 C         144.6175  129.7639  154.3574 C.3     1  UNL1        0.1538
     35 C         143.3787  132.0758  154.8730 C.ar    1  UNL1        0.0967
@<TRIPOS>BOND
     1     1     2    1
     2     2     3   ar
     3     3     4   ar
     4     4     5   ar
     5     5     8    1
     6     8     9    2
     7     8    10   am
     8    10    12    1
     9    12    13   ar
    10    13    14   ar
    11    14    15   ar
    12    15    16    1
    13    15    17   ar
    14    17    18   ar
    15     5     6   ar
    16     6     7   ar
    17     7    19    1
    18    19    20    3
    19    20    21    1
    20    21    22   ar
    21    22    23   ar
    22    23    30    1
    23    30    31   ar
    24    31    32   ar
    25    32    33   ar
    26    33    34    1
    27    33    35   ar
    28    23    24   ar
    29    24    25   ar
    30    25    26   ar
    31    26    27    1
    32     7     2   ar
    33    26    21   ar
    34    18    12   ar
    35    35    30   ar
    36    10    11    1
    37    27    28    1
    38    27    29    1
@<TRIPOS>MOLECULE
*****
 35 38 0 0 0
SMALL
GASTEIGER

@<TRIPOS>ATOM
      1 C         138.3122  141.3141  158.6177 C.3     1  UNL1        0.0317
      2 C         138.8771  141.6587  159.9638 C.ar    1  UNL1       -0.0142
      3 C         138.0991  142.5326  160.9024 C.ar    1  UNL1       -0.0035
      4 C         138.6640  142.8771  162.2485 C.ar    1  UNL1        0.0042
      5 C         140.0069  142.3478  162.6562 C.ar    1  UNL1        0.0543
      6 C         140.7850  141.4738  161.7176 C.ar    1  UNL1        0.0124
      7 C         140.2201  141.1293  160.3715 C.ar    1  UNL1        0.0381
      8 C         140.5719  142.6923  164.0023 C.2     1  UNL1        0.2495
      9 O         141.0048  144.0980  164.2966 O.2     1  UNL1       -0.2698
     10 N         140.7038  141.6312  165.0542 N.am    1  UNL1       -0.2804
     11 H         140.4197  140.7086  164.8611 H       1  UNL1        0.1552
     12 C         141.2687  141.9758  166.4004 C.ar    1  UNL1        0.0506
     13 C         142.7475  141.8902  166.6375 C.ar    1  UNL1        0.0155
     14 C         143.3124  142.2347  167.9837 C.ar    1  UNL1        0.0127
     15 C         142.3986  142.6649  169.0927 C.ar    1  UNL1        0.0578
     16 CL        142.9635  143.0094  170.4389 Cl      1  UNL1       -0.0822
     17 C         140.9199  142.7505  168.8556 C.ar    1  UNL1        0.0127
     18 C         140.3550  142.4059  167.5095 C.ar    1  UNL1        0.0155
     19 C         140.9982  140.2553  159.4329 C.1     1  UNL1       -0.0600
     20 C         141.7763  139.3814  158.4945 C.1     1  UNL1       -0.0570
     21 C         142.5544  138.5074  157.5559 C.ar    1  UNL1        0.0731
     22 C         142.2645  137.0373  157.4859 C.ar    1  UNL1        0.0127
     23 C         143.0425  136.1634  156.5474 C.ar    1  UNL1        0.0229
     24 C         144.1105  136.7595  155.6790 C.ar    1  UNL1        0.1004
     25 N         144.4004  138.2295  155.7491 N.ar    1  UNL1       -0.2290
     26 C         143.6223  139.1035  156.6875 C.ar    1  UNL1        0.1330
     27 N         143.9122  140.5735  156.7576 N.pl3   1  UNL1       -0.3421
     28 H         144.6131  140.9648  156.1876 H       1  UNL1        0.1437
     29 H         143.4015  141.1472  157.3736 H       1  UNL1        0.1437
     30 C         142.7527  134.6933  156.4773 C.ar    1  UNL1        0.0412
     31 C         143.3181  133.6390  157.3821 C.ar    1  UNL1        0.1217
     32 N         142.7614  132.3136  156.9542 N.ar    1  UNL1       -0.1676
     33 N         141.8518  132.5487  155.7848 N.ar    1  UNL1       -0.2473
     34 C         141.0826  131.4976  155.0408 C.3     1  UNL1        0.1538
     35 C         141.8464  134.0194  155.4901 C.ar    1  UNL1        0.0967
@<TRIPOS>BOND
     1     1     2    1
     2     2     3   ar
     3     3     4   ar
     4     4     5   ar
     5     5     8    1
     6     8     9    2
     7     8    10   am
     8    10    12    1
     9    12    13   ar
    10    13    14   ar
    11    14    15   ar
    12    15    16    1
    13    15    17   ar
    14    17    18   ar
    15     5     6   ar
    16     6     7   ar
    17     7    19    1
    18    19    20    3
    19    20    21    1
    20    21    22   ar
    21    22    23   ar
    22    23    30    1
    23    30    31   ar
    24    31    32   ar
    25    32    33   ar
    26    33    34    1
    27    33    35   ar
    28    23    24   ar
    29    24    25   ar
    30    25    26   ar
    31    26    27    1
    32     7     2   ar
    33    26    21   ar
    34    18    12   ar
    35    35    30   ar
    36    10    11    1
    37    27    28    1
    38    27    29    1
@<TRIPOS>MOLECULE
*****
 35 38 0 0 0
SMALL
GASTEIGER

@<TRIPOS>ATOM
      1 C         141.3194  141.9851  158.5977 C.3     1  UNL1        0.0317
      2 C         141.8349  140.6673  158.1000 C.ar    1  UNL1       -0.0142
      3 C         142.4318  140.5653  156.7277 C.ar    1  UNL1       -0.0035
      4 C         142.9472  139.2475  156.2299 C.ar    1  UNL1        0.0042
      5 C         142.8658  138.0317  157.1046 C.ar    1  UNL1        0.0543
      6 C         142.2689  138.1336  158.4769 C.ar    1  UNL1        0.0124
      7 C         141.7535  139.4514  158.9746 C.ar    1  UNL1        0.0381
      8 C         143.3813  136.7139  156.6069 C.2     1  UNL1        0.2495
      9 O         144.5138  136.6743  155.6242 O.2     1  UNL1       -0.2698
     10 N         142.7642  135.4356  157.0918 N.am    1  UNL1       -0.2804
     11 H         142.0208  135.4616  157.7368 H       1  UNL1        0.1552
     12 C         143.2796  134.1178  156.5941 C.ar    1  UNL1        0.0506
     13 C         144.2036  133.3025  157.4495 C.ar    1  UNL1        0.0155
     14 C         144.7191  131.9847  156.9518 C.ar    1  UNL1        0.0127
     15 C         144.3105  131.4822  155.5987 C.ar    1  UNL1        0.0578
     16 CL        144.8260  130.1644  155.1010 Cl      1  UNL1       -0.0822
     17 C         143.3866  132.2975  154.7434 C.ar    1  UNL1        0.0127
     18 C         142.8712  133.6153  155.2412 C.ar    1  UNL1        0.0155
     19 C         141.1566  139.5533  160.3470 C.1     1  UNL1       -0.0600
     20 C         140.5597  139.6551  161.7193 C.1     1  UNL1       -0.0570
     21 C         139.9628  139.7570  163.0917 C.ar    1  UNL1        0.0731
     22 C         140.8489  139.7034  164.3008 C.ar    1  UNL1        0.0127
     23 C         140.2521  139.8052  165.6732 C.ar    1  UNL1        0.0229
     24 C         138.7692  139.9608  165.8364 C.ar    1  UNL1        0.1004
     25 N         137.8831  140.0145  164.6273 N.ar    1  UNL1       -0.2290
     26 C         138.4799  139.9126  163.2550 C.ar    1  UNL1        0.1330
     27 N         137.5938  139.9662  162.0459 N.pl3   1  UNL1       -0.3421
     28 H         136.6205  140.0683  162.1530 H       1  UNL1        0.1437
     29 H         137.9855  139.8994  161.1451 H       1  UNL1        0.1437
     30 C         141.1382  139.7516  166.8823 C.ar    1  UNL1        0.0412
     31 C         142.5214  139.1737  166.9368 C.ar    1  UNL1        0.1217
     32 N         143.0348  139.3313  168.3374 N.ar    1  UNL1       -0.1676
     33 N         141.9689  140.0066  169.1485 N.ar    1  UNL1       -0.2473
     34 C         142.0592  140.3601  170.6034 C.3     1  UNL1        0.1538
     35 C         140.7968  140.2663  168.2492 C.ar    1  UNL1        0.0967
@<TRIPOS>BOND
     1     1     2    1
     2     2     3   ar
     3     3     4   ar
     4     4     5   ar
     5     5     8    1
     6     8     9    2
     7     8    10   am
     8    10    12    1
     9    12    13   ar
    10    13    14   ar
    11    14    15   ar
    12    15    16    1
    13    15    17   ar
    14    17    18   ar
    15     5     6   ar
    16     6     7   ar
    17     7    19    1
    18    19    20    3
    19    20    21    1
    20    21    22   ar
    21    22    23   ar
    22    23    30    1
    23    30    31   ar
    24    31    32   ar
    25    32    33   ar
    26    33    34    1
    27    33    35   ar
    28    23    24   ar
    29    24    25   ar
    30    25    26   ar
    31    26    27    1
    32     7     2   ar
    33    26    21   ar
    34    18    12   ar
    35    35    30   ar
    36    10    11    1
    37    27    28    1
    38    27    29    1
@<TRIPOS>MOLECULE
*****
 35 38 0 0 0
SMALL
GASTEIGER

@<TRIPOS>ATOM
      1 C         143.3128  139.4780  156.5614 C.3     1  UNL1        0.0317
      2 C         143.3353  137.9783  156.5420 C.ar    1  UNL1       -0.0142
      3 C         143.7595  137.2505  155.3009 C.ar    1  UNL1       -0.0035
      4 C         143.7819  135.7508  155.2815 C.ar    1  UNL1        0.0042
      5 C         143.3801  134.9789  156.5032 C.ar    1  UNL1        0.0543
      6 C         142.9559  135.7066  157.7443 C.ar    1  UNL1        0.0124
      7 C         142.9334  137.2063  157.7637 C.ar    1  UNL1        0.0381
      8 C         143.4025  133.4792  156.4838 C.2     1  UNL1        0.2495
      9 O         142.1165  132.7108  156.4085 O.2     1  UNL1       -0.2698
     10 N         144.7109  132.7479  156.5398 N.am    1  UNL1       -0.2804
     11 H         145.5550  133.2522  156.5893 H       1  UNL1        0.1552
     12 C         144.7334  131.2482  156.5204 C.ar    1  UNL1        0.0506
     13 C         144.8052  130.5160  155.2132 C.ar    1  UNL1        0.0155
     14 C         144.8276  129.0163  155.1938 C.ar    1  UNL1        0.0127
     15 C         144.7782  128.2487  156.4817 C.ar    1  UNL1        0.0578
     16 CL        144.8006  126.7490  156.4623 Cl      1  UNL1       -0.0822
     17 C         144.7064  128.9809  157.7888 C.ar    1  UNL1        0.0127
     18 C         144.6840  130.4806  157.8082 C.ar    1  UNL1        0.0155
     19 C         142.5092  137.9341  159.0049 C.1     1  UNL1       -0.0600
     20 C         142.0849  138.6618  160.2460 C.1     1  UNL1       -0.0570
     21 C         141.6606  139.3895  161.4872 C.ar    1  UNL1        0.0731
     22 C         141.5820  140.8875  161.4884 C.ar    1  UNL1        0.0127
     23 C         141.1577  141.6152  162.7295 C.ar    1  UNL1        0.0229
     24 C         140.8121  140.8451  163.9693 C.ar    1  UNL1        0.1004
     25 N         140.8908  139.3471  163.9681 N.ar    1  UNL1       -0.2290
     26 C         141.3150  138.6194  162.7270 C.ar    1  UNL1        0.1330
     27 N         141.3937  137.1214  162.7258 N.pl3   1  UNL1       -0.3421
     28 H         141.1669  136.6159  163.5396 H       1  UNL1        0.1437
     29 H         141.6721  136.6438  161.9113 H       1  UNL1        0.1437
     30 C         141.0791  143.1132  162.7307 C.ar    1  UNL1        0.0412
     31 C         142.0205  144.0449  163.4346 C.ar    1  UNL1        0.1217
     32 N         141.5684  145.4500  163.1672 N.ar    1  UNL1       -0.1676
     33 N         140.3476  145.3866  162.2979 N.ar    1  UNL1       -0.2473
     34 C         139.5664  146.5612  161.7879 C.3     1  UNL1        0.1538
     35 C         140.0452  143.9424  162.0281 C.ar    1  UNL1        0.0967
@<TRIPOS>BOND
     1     1     2    1
     2     2     3   ar
     3     3     4   ar
     4     4     5   ar
     5     5     8    1
     6     8     9    2
     7     8    10   am
     8    10    12    1
     9    12    13   ar
    10    13    14   ar
    11    14    15   ar
    12    15    16    1
    13    15    17   ar
    14    17    18   ar
    15     5     6   ar
    16     6     7   ar
    17     7    19    1
    18    19    20    3
    19    20    21    1
    20    21    22   ar
    21    22    23   ar
    22    23    30    1
    23    30    31   ar
    24    31    32   ar
    25    32    33   ar
    26    33    34    1
    27    33    35   ar
    28    23    24   ar
    29    24    25   ar
    30    25    26   ar
    31    26    27    1
    32     7     2   ar
    33    26    21   ar
    34    18    12   ar
    35    35    30   ar
    36    10    11    1
    37    27    28    1
    38    27    29    1
@<TRIPOS>MOLECULE
*****
 35 38 0 0 0
SMALL
GASTEIGER

@<TRIPOS>ATOM
      1 C         144.5028  142.7357  159.0286 C.3     1  UNL1        0.0317
      2 C         143.9469  142.5486  160.4092 C.ar    1  UNL1       -0.0142
      3 C         144.8293  142.0399  161.5104 C.ar    1  UNL1       -0.0035
      4 C         144.2735  141.8528  162.8909 C.ar    1  UNL1        0.0042
      5 C         142.8353  142.1743  163.1703 C.ar    1  UNL1        0.0543
      6 C         141.9529  142.6829  162.0692 C.ar    1  UNL1        0.0124
      7 C         142.5087  142.8701  160.6886 C.ar    1  UNL1        0.0381
      8 C         142.2794  141.9871  164.5509 C.2     1  UNL1        0.2495
      9 O         141.7992  143.1734  165.3333 O.2     1  UNL1       -0.2698
     10 N         142.2038  140.6137  165.1492 N.am    1  UNL1       -0.2804
     11 H         142.5190  139.8351  164.6357 H       1  UNL1        0.1552
     12 C         141.6479  140.4266  166.5298 C.ar    1  UNL1        0.0506
     13 C         140.1634  140.4070  166.7443 C.ar    1  UNL1        0.0155
     14 C         139.6076  140.2198  168.1249 C.ar    1  UNL1        0.0127
     15 C         140.5362  140.0523  169.2909 C.ar    1  UNL1        0.0578
     16 CL        139.9804  139.8651  170.6715 Cl      1  UNL1       -0.0822
     17 C         142.0207  140.0719  169.0764 C.ar    1  UNL1        0.0127
     18 C         142.5765  140.2591  167.6958 C.ar    1  UNL1        0.0155
     19 C         141.6263  143.3788  159.5874 C.1     1  UNL1       -0.0600
     20 C         140.7438  143.8874  158.4862 C.1     1  UNL1       -0.0570
     21 C         139.8613  144.3961  157.3850 C.ar    1  UNL1        0.0731
     22 C         140.0027  145.8095  156.9031 C.ar    1  UNL1        0.0127
     23 C         139.1203  146.3182  155.8019 C.ar    1  UNL1        0.0229
     24 C         138.0966  145.4135  155.1827 C.ar    1  UNL1        0.1004
     25 N         137.9553  144.0000  155.6647 N.ar    1  UNL1       -0.2290
     26 C         138.8376  143.4913  156.7658 C.ar    1  UNL1        0.1330
     27 N         138.6963  142.0779  157.2478 N.pl3   1  UNL1       -0.3421
     28 H         138.0244  141.4841  156.8414 H       1  UNL1        0.1437
     29 H         139.2755  141.7441  157.9705 H       1  UNL1        0.1437
     30 C         139.2616  147.7316  155.3200 C.ar    1  UNL1        0.0412
     31 C         140.0638  148.1833  154.1358 C.ar    1  UNL1        0.1217
     32 N         139.9235  149.6724  154.0215 N.ar    1  UNL1       -0.1676
     33 N         139.0345  150.1410  155.1351 N.ar    1  UNL1       -0.2473
     34 C         138.6263  151.5599  155.3998 C.3     1  UNL1        0.1538
     35 C         138.6255  148.9415  155.9376 C.ar    1  UNL1        0.0967
@<TRIPOS>BOND
     1     1     2    1
     2     2     3   ar
     3     3     4   ar
     4     4     5   ar
     5     5     8    1
     6     8     9    2
     7     8    10   am
     8    10    12    1
     9    12    13   ar
    10    13    14   ar
    11    14    15   ar
    12    15    16    1
    13    15    17   ar
    14    17    18   ar
    15     5     6   ar
    16     6     7   ar
    17     7    19    1
    18    19    20    3
    19    20    21    1
    20    21    22   ar
    21    22    23   ar
    22    23    30    1
    23    30    31   ar
    24    31    32   ar
    25    32    33   ar
    26    33    34    1
    27    33    35   ar
    28    23    24   ar
    29    24    25   ar
    30    25    26   ar
    31    26    27    1
    32     7     2   ar
    33    26    21   ar
    34    18    12   ar
    35    35    30   ar
    36    10    11    1
    37    27    28    1
    38    27    29    1
@<TRIPOS>MOLECULE
*****
 35 38 0 0 0
SMALL
GASTEIGER

@<TRIPOS>ATOM
      1 C         144.7678  142.5067  159.0199 C.3     1  UNL1        0.0317
      2 C         144.2458  142.2778  160.4074 C.ar    1  UNL1       -0.0142
      3 C         144.5896  143.2393  161.5062 C.ar    1  UNL1       -0.0035
      4 C         144.0675  143.0104  162.8937 C.ar    1  UNL1        0.0042
      5 C         143.2017  141.8200  163.1823 C.ar    1  UNL1        0.0543
      6 C         142.8579  140.8586  162.0836 C.ar    1  UNL1        0.0124
      7 C         143.3800  141.0874  160.6961 C.ar    1  UNL1        0.0381
      8 C         142.6797  141.5911  164.5698 C.2     1  UNL1        0.2495
      9 O         143.6346  141.3332  165.6974 O.2     1  UNL1       -0.2698
     10 N         141.2027  141.6202  164.8297 N.am    1  UNL1       -0.2804
     11 H         140.5759  141.7895  164.0897 H       1  UNL1        0.1552
     12 C         140.6806  141.3913  166.2172 C.ar    1  UNL1        0.0506
     13 C         139.9736  140.1111  166.5508 C.ar    1  UNL1        0.0155
     14 C         139.4515  139.8822  167.9383 C.ar    1  UNL1        0.0127
     15 C         139.6365  140.9336  168.9921 C.ar    1  UNL1        0.0578
     16 CL        139.1145  140.7047  170.3796 Cl      1  UNL1       -0.0822
     17 C         140.3436  142.2137  168.6585 C.ar    1  UNL1        0.0127
     18 C         140.8656  142.4426  167.2710 C.ar    1  UNL1        0.0155
     19 C         143.0362  140.1259  159.5973 C.1     1  UNL1       -0.0600
     20 C         142.6923  139.1644  158.4985 C.1     1  UNL1       -0.0570
     21 C         142.3485  138.2029  157.3997 C.ar    1  UNL1        0.0731
     22 C         142.7444  136.7606  157.5141 C.ar    1  UNL1        0.0127
     23 C         142.4007  135.7991  156.4154 C.ar    1  UNL1        0.0229
     24 C         141.6610  136.2798  155.2023 C.ar    1  UNL1        0.1004
     25 N         141.2651  137.7221  155.0879 N.ar    1  UNL1       -0.2290
     26 C         141.6089  138.6836  156.1866 C.ar    1  UNL1        0.1330
     27 N         141.2130  140.1259  156.0722 N.pl3   1  UNL1       -0.3421
     28 H         140.7276  140.4414  155.2759 H       1  UNL1        0.1437
     29 H         141.4387  140.7570  156.7933 H       1  UNL1        0.1437
     30 C         142.7965  134.3568  156.5298 C.ar    1  UNL1        0.0412
     31 C         142.1948  133.2141  155.7668 C.ar    1  UNL1        0.1217
     32 N         142.8900  131.9550  156.1928 N.ar    1  UNL1       -0.1676
     33 N         143.9215  132.3195  157.2191 N.ar    1  UNL1       -0.2473
     34 C         144.8480  131.3670  157.9149 C.3     1  UNL1        0.1538
     35 C         143.8637  133.8039  157.4274 C.ar    1  UNL1        0.0967
@<TRIPOS>BOND
     1     1     2    1
     2     2     3   ar
     3     3     4   ar
     4     4     5   ar
     5     5     8    1
     6     8     9    2
     7     8    10   am
     8    10    12    1
     9    12    13   ar
    10    13    14   ar
    11    14    15   ar
    12    15    16    1
    13    15    17   ar
    14    17    18   ar
    15     5     6   ar
    16     6     7   ar
    17     7    19    1
    18    19    20    3
    19    20    21    1
    20    21    22   ar
    21    22    23   ar
    22    23    30    1
    23    30    31   ar
    24    31    32   ar
    25    32    33   ar
    26    33    34    1
    27    33    35   ar
    28    23    24   ar
    29    24    25   ar
    30    25    26   ar
    31    26    27    1
    32     7     2   ar
    33    26    21   ar
    34    18    12   ar
    35    35    30   ar
    36    10    11    1
    37    27    28    1
    38    27    29    1
@<TRIPOS>MOLECULE
*****
 35 38 0 0 0
SMALL
GASTEIGER

@<TRIPOS>ATOM
      1 C         139.2691  141.1693  165.9890 C.3     1  UNL1        0.0317
      2 C         140.1938  140.6011  167.0244 C.ar    1  UNL1       -0.0142
      3 C         139.8892  140.7815  168.4820 C.ar    1  UNL1       -0.0035
      4 C         140.8138  140.2133  169.5174 C.ar    1  UNL1        0.0042
      5 C         142.0431  139.4646  169.0952 C.ar    1  UNL1        0.0543
      6 C         142.3477  139.2842  167.6377 C.ar    1  UNL1        0.0124
      7 C         141.4230  139.8524  166.6022 C.ar    1  UNL1        0.0381
      8 C         142.9678  138.8964  170.1307 C.2     1  UNL1        0.2495
      9 O         143.5577  139.7902  171.1809 O.2     1  UNL1       -0.2698
     10 N         143.3027  137.4344  170.1158 N.am    1  UNL1       -0.2804
     11 H         142.9155  136.8477  169.4265 H       1  UNL1        0.1552
     12 C         144.2273  136.8661  171.1512 C.ar    1  UNL1        0.0506
     13 C         144.1686  135.4057  171.4888 C.ar    1  UNL1        0.0155
     14 C         145.0933  134.8375  172.5242 C.ar    1  UNL1        0.0127
     15 C         146.0767  135.7297  173.2221 C.ar    1  UNL1        0.0578
     16 CL        147.0014  135.1615  174.2575 Cl      1  UNL1       -0.0822
     17 C         146.1354  137.1900  172.8845 C.ar    1  UNL1        0.0127
     18 C         145.2107  137.7582  171.8491 C.ar    1  UNL1        0.0155
     19 C         141.7277  139.6719  165.1446 C.1     1  UNL1       -0.0600
     20 C         142.0324  139.4914  163.6870 C.1     1  UNL1       -0.0570
     21 C         142.3370  139.3109  162.2294 C.ar    1  UNL1        0.0731
     22 C         141.2381  139.4206  161.2143 C.ar    1  UNL1        0.0127
     23 C         141.5427  139.2401  159.7567 C.ar    1  UNL1        0.0229
     24 C         142.9462  138.9500  159.3142 C.ar    1  UNL1        0.1004
     25 N         144.0452  138.8403  160.3292 N.ar    1  UNL1       -0.2290
     26 C         143.7406  139.0208  161.7868 C.ar    1  UNL1        0.1330
     27 N         144.8395  138.9111  162.8019 N.pl3   1  UNL1       -0.3421
     28 H         145.7607  138.7207  162.5114 H       1  UNL1        0.1437
     29 H         144.6396  139.0296  163.7586 H       1  UNL1        0.1437
     30 C         140.4438  139.3498  158.7417 C.ar    1  UNL1        0.0412
     31 C         140.1803  138.3891  157.6202 C.ar    1  UNL1        0.1217
     32 N         138.9891  138.8850  156.8553 N.ar    1  UNL1       -0.1676
     33 N         138.5163  140.1522  157.5040 N.ar    1  UNL1       -0.2473
     34 C         137.3494  140.9857  157.0641 C.3     1  UNL1        0.1538
     35 C         139.4154  140.4394  158.6698 C.ar    1  UNL1        0.0967
@<TRIPOS>BOND
     1     1     2    1
     2     2     3   ar
     3     3     4   ar
     4     4     5   ar
     5     5     8    1
     6     8     9    2
     7     8    10   am
     8    10    12    1
     9    12    13   ar
    10    13    14   ar
    11    14    15   ar
    12    15    16    1
    13    15    17   ar
    14    17    18   ar
    15     5     6   ar
    16     6     7   ar
    17     7    19    1
    18    19    20    3
    19    20    21    1
    20    21    22   ar
    21    22    23   ar
    22    23    30    1
    23    30    31   ar
    24    31    32   ar
    25    32    33   ar
    26    33    34    1
    27    33    35   ar
    28    23    24   ar
    29    24    25   ar
    30    25    26   ar
    31    26    27    1
    32     7     2   ar
    33    26    21   ar
    34    18    12   ar
    35    35    30   ar
    36    10    11    1
    37    27    28    1
    38    27    29    1
@<TRIPOS>MOLECULE
*****
 35 38 0 0 0
SMALL
GASTEIGER

@<TRIPOS>ATOM
      1 C         143.5785  139.5776  158.5528 C.3     1  UNL1        0.0317
      2 C         143.1864  139.4527  159.9953 C.ar    1  UNL1       -0.0142
      3 C         144.0755  138.7166  160.9531 C.ar    1  UNL1       -0.0035
      4 C         143.6835  138.5917  162.3956 C.ar    1  UNL1        0.0042
      5 C         142.4022  139.2029  162.8802 C.ar    1  UNL1        0.0543
      6 C         141.5131  139.9390  161.9223 C.ar    1  UNL1        0.0124
      7 C         141.9052  140.0639  160.4799 C.ar    1  UNL1        0.0381
      8 C         142.0102  139.0779  164.3226 C.2     1  UNL1        0.2495
      9 O         141.8527  137.7210  164.9422 O.2     1  UNL1       -0.2698
     10 N         141.7755  140.3099  165.1455 N.am    1  UNL1       -0.2804
     11 H         141.8788  141.2005  164.7388 H       1  UNL1        0.1552
     12 C         141.3834  140.1850  166.5879 C.ar    1  UNL1        0.0506
     13 C         139.9464  140.3373  166.9904 C.ar    1  UNL1        0.0155
     14 C         139.5543  140.2124  168.4329 C.ar    1  UNL1        0.0127
     15 C         140.5993  139.9351  169.4728 C.ar    1  UNL1        0.0578
     16 CL        140.2072  139.8102  170.9153 Cl      1  UNL1       -0.0822
     17 C         142.0361  139.7829  169.0703 C.ar    1  UNL1        0.0127
     18 C         142.4282  139.9078  167.6278 C.ar    1  UNL1        0.0155
     19 C         141.0160  140.8001  159.5220 C.1     1  UNL1       -0.0600
     20 C         140.1269  141.5363  158.5642 C.1     1  UNL1       -0.0570
     21 C         139.2377  142.2724  157.6063 C.ar    1  UNL1        0.0731
     22 C         139.7178  143.5370  156.9579 C.ar    1  UNL1        0.0127
     23 C         138.8287  144.2731  156.0001 C.ar    1  UNL1        0.0229
     24 C         137.4594  143.7448  155.6907 C.ar    1  UNL1        0.1004
     25 N         136.9792  142.4802  156.3391 N.ar    1  UNL1       -0.2290
     26 C         137.8684  141.7441  157.2969 C.ar    1  UNL1        0.1330
     27 N         137.3882  140.4796  157.9453 N.pl3   1  UNL1       -0.3421
     28 H         136.4894  140.1328  157.7422 H       1  UNL1        0.1437
     29 H         137.9718  139.9964  158.5739 H       1  UNL1        0.1437
     30 C         139.3089  145.5377  155.3517 C.ar    1  UNL1        0.0412
     31 C         140.3902  145.6426  154.3175 C.ar    1  UNL1        0.1217
     32 N         140.5417  147.0891  153.9503 N.ar    1  UNL1       -0.1676
     33 N         139.5540  147.8781  154.7577 N.ar    1  UNL1       -0.2473
     34 C         139.3619  149.3649  154.7077 C.3     1  UNL1        0.1538
     35 C         138.7921  146.9193  155.6238 C.ar    1  UNL1        0.0967
@<TRIPOS>BOND
     1     1     2    1
     2     2     3   ar
     3     3     4   ar
     4     4     5   ar
     5     5     8    1
     6     8     9    2
     7     8    10   am
     8    10    12    1
     9    12    13   ar
    10    13    14   ar
    11    14    15   ar
    12    15    16    1
    13    15    17   ar
    14    17    18   ar
    15     5     6   ar
    16     6     7   ar
    17     7    19    1
    18    19    20    3
    19    20    21    1
    20    21    22   ar
    21    22    23   ar
    22    23    30    1
    23    30    31   ar
    24    31    32   ar
    25    32    33   ar
    26    33    34    1
    27    33    35   ar
    28    23    24   ar
    29    24    25   ar
    30    25    26   ar
    31    26    27    1
    32     7     2   ar
    33    26    21   ar
    34    18    12   ar
    35    35    30   ar
    36    10    11    1
    37    27    28    1
    38    27    29    1
@<TRIPOS>MOLECULE
*****
 35 38 0 0 0
SMALL
GASTEIGER

@<TRIPOS>ATOM
      1 C         142.7413  143.5315  156.3627 C.3     1  UNL1        0.0317
      2 C         142.9090  142.0423  156.2973 C.ar    1  UNL1       -0.0142
      3 C         143.2404  141.3815  154.9922 C.ar    1  UNL1       -0.0035
      4 C         143.4081  139.8923  154.9269 C.ar    1  UNL1        0.0042
      5 C         143.2443  139.0640  156.1667 C.ar    1  UNL1        0.0543
      6 C         142.9128  139.7249  157.4718 C.ar    1  UNL1        0.0124
      7 C         142.7452  141.2140  157.5371 C.ar    1  UNL1        0.0381
      8 C         143.4120  137.5748  156.1013 C.2     1  UNL1        0.2495
      9 O         144.6908  136.9861  155.5838 O.2     1  UNL1       -0.2698
     10 N         142.3008  136.6744  156.5536 N.am    1  UNL1       -0.2804
     11 H         141.4615  137.0608  156.8933 H       1  UNL1        0.1552
     12 C         142.4685  135.1853  156.4882 C.ar    1  UNL1        0.0506
     13 C         143.4198  134.4960  157.4210 C.ar    1  UNL1        0.0155
     14 C         143.5875  133.0068  157.3557 C.ar    1  UNL1        0.0127
     15 C         142.8038  132.2069  156.3576 C.ar    1  UNL1        0.0578
     16 CL        142.9715  130.7178  156.2923 Cl      1  UNL1       -0.0822
     17 C         141.8525  132.8962  155.4249 C.ar    1  UNL1        0.0127
     18 C         141.6849  134.3854  155.4902 C.ar    1  UNL1        0.0155
     19 C         142.4137  141.8749  158.8423 C.1     1  UNL1       -0.0600
     20 C         142.0822  142.5358  160.1474 C.1     1  UNL1       -0.0570
     21 C         141.7508  143.1967  161.4526 C.ar    1  UNL1        0.0731
     22 C         141.6711  142.3796  162.7080 C.ar    1  UNL1        0.0127
     23 C         141.3397  143.0404  164.0131 C.ar    1  UNL1        0.0229
     24 C         141.0879  144.5183  164.0629 C.ar    1  UNL1        0.1004
     25 N         141.1675  145.3353  162.8074 N.ar    1  UNL1       -0.2290
     26 C         141.4989  144.6745  161.5023 C.ar    1  UNL1        0.1330
     27 N         141.5786  145.4916  160.2469 N.pl3   1  UNL1       -0.3421
     28 H         141.4133  146.4615  160.2795 H       1  UNL1        0.1437
     29 H         141.7961  145.0578  159.3902 H       1  UNL1        0.1437
     30 C         141.2600  142.2234  165.2686 C.ar    1  UNL1        0.0412
     31 C         141.8762  140.8725  165.4820 C.ar    1  UNL1        0.1217
     32 N         141.5472  140.4280  166.8763 N.ar    1  UNL1       -0.1676
     33 N         140.7278  141.5041  167.5247 N.ar    1  UNL1       -0.2473
     34 C         140.1817  141.4757  168.9215 C.3     1  UNL1        0.1538
     35 C         140.5503  142.6137  166.5310 C.ar    1  UNL1        0.0967
@<TRIPOS>BOND
     1     1     2    1
     2     2     3   ar
     3     3     4   ar
     4     4     5   ar
     5     5     8    1
     6     8     9    2
     7     8    10   am
     8    10    12    1
     9    12    13   ar
    10    13    14   ar
    11    14    15   ar
    12    15    16    1
    13    15    17   ar
    14    17    18   ar
    15     5     6   ar
    16     6     7   ar
    17     7    19    1
    18    19    20    3
    19    20    21    1
    20    21    22   ar
    21    22    23   ar
    22    23    30    1
    23    30    31   ar
    24    31    32   ar
    25    32    33   ar
    26    33    34    1
    27    33    35   ar
    28    23    24   ar
    29    24    25   ar
    30    25    26   ar
    31    26    27    1
    32     7     2   ar
    33    26    21   ar
    34    18    12   ar
    35    35    30   ar
    36    10    11    1
    37    27    28    1
    38    27    29    1
