@<TRIPOS>MOLECULE
*****
 37 41 0 0 0
SMALL
GASTEIGER

@<TRIPOS>ATOM
      1 N         142.7150  144.2701  163.2715 N.3     1  UNL1       -0.2687
      2 C         142.4986  143.6228  161.9358 C.3     1  UNL1        0.0737
      3 C         141.1098  143.4811  161.3872 C.3     1  UNL1        0.0359
      4 C         139.9373  143.9868  162.1743 C.3     1  UNL1        0.0901
      5 C         140.1537  144.6341  163.5100 C.3     1  UNL1        0.1911
      6 F         138.9811  145.1398  164.2971 F       1  UNL1       -0.2343
      7 C         141.5425  144.7758  164.0586 C.3     1  UNL1        0.1092
      8 N         138.5484  143.8451  161.6257 N.3     1  UNL1       -0.2913
      9 H         138.4507  144.5425  160.8878 H       1  UNL1        0.1236
     10 C         138.1009  142.5360  161.0461 C.3     1  UNL1        0.1152
     11 C         138.2797  141.2690  161.8288 C.ar    1  UNL1        0.0765
     12 C         138.7290  140.0166  161.1362 C.ar    1  UNL1        0.0193
     13 C         138.9079  138.7495  161.9189 C.ar    1  UNL1        0.0411
     14 C         138.6375  138.7349  163.3942 C.ar    1  UNL1        0.1708
     15 C         138.1883  139.9873  164.0869 C.ar    1  UNL1        0.1682
     16 N         138.0094  141.2543  163.3042 N.ar    1  UNL1       -0.2304
     17 N         137.9179  139.9726  165.5622 N.am    1  UNL1       -0.2639
     18 C         138.0968  138.7055  166.3450 C.2     1  UNL1        0.2718
     19 O         137.8264  138.6909  167.8203 O.2     1  UNL1       -0.2707
     20 C         138.5460  137.4532  165.6523 C.3     1  UNL1        0.2898
     21 O         138.8164  137.4679  164.1769 O.3     1  UNL1       -0.4628
     22 H         137.6231  140.7946  166.0169 H       1  UNL1        0.1565
     23 C         144.1039  144.4118  163.8201 C.3     1  UNL1        0.0970
     24 C         144.5692  143.5107  164.9254 C.3     1  UNL1        0.1263
     25 C         141.4598  141.8817  167.7409 C.ar    1  UNL1        0.0699
     26 C         141.1148  140.4221  167.7141 C.ar    1  UNL1        0.0104
     27 C         141.8064  139.5056  166.7488 C.ar    1  UNL1        0.0021
     28 C         142.8428  140.0486  165.8103 C.ar    1  UNL1        0.0161
     29 C         143.5344  139.1321  164.8451 C.ar    1  UNL1        0.0063
     30 C         144.5709  139.6751  163.9066 C.ar    1  UNL1        0.0608
     31 C         144.9159  141.1347  163.9333 C.ar    1  UNL1        0.2610
     32 O         145.9523  141.6777  162.9948 O.2     1  UNL1       -0.2670
     33 N         144.2243  142.0512  164.8986 N.ar    1  UNL1       -0.2941
     34 C         143.1878  141.5081  165.8371 C.ar    1  UNL1        0.0631
     35 C         142.4962  142.4247  166.8024 C.ar    1  UNL1        0.0275
     36 N         140.0767  143.7147  169.6714 N.1     1  UNL1       -0.1908
     37 C         140.7682  142.7982  168.7061 C.1     1  UNL1        0.1005
@<TRIPOS>BOND
     1    36    37    3
     2    37    25    1
     3    25    26   ar
     4    26    27   ar
     5    27    28   ar
     6    28    29   ar
     7    29    30   ar
     8    30    31   ar
     9    31    32    2
    10    31    33   ar
    11    33    24    1
    12    24    23    1
    13    23     1    1
    14     1     2    1
    15     2     3    1
    16     3     4    1
    17     4     8    1
    18     8    10    1
    19    10    11    1
    20    11    12   ar
    21    12    13   ar
    22    13    14   ar
    23    14    15   ar
    24    15    16   ar
    25    15    17    1
    26    17    18   am
    27    18    19    2
    28    18    20    1
    29    20    21    1
    30     4     5    1
    31     5     6    1
    32     5     7    1
    33    33    34   ar
    34    34    35   ar
    35    35    25   ar
    36    34    28   ar
    37     7     1    1
    38    16    11   ar
    39    21    14    1
    40     8     9    1
    41    17    22    1
@<TRIPOS>MOLECULE
*****
 37 41 0 0 0
SMALL
GASTEIGER

@<TRIPOS>ATOM
      1 N         137.8584  142.9329  162.9299 N.3     1  UNL1       -0.2687
      2 C         137.6569  141.7977  163.8895 C.3     1  UNL1        0.0737
      3 C         137.6734  140.3829  163.3915 C.3     1  UNL1        0.0359
      4 C         137.8912  140.1033  161.9340 C.3     1  UNL1        0.0901
      5 C         138.0926  141.2385  160.9745 C.3     1  UNL1        0.1911
      6 F         138.3105  140.9588  159.5169 F       1  UNL1       -0.2343
      7 C         138.0762  142.6533  161.4724 C.3     1  UNL1        0.1092
      8 N         137.9077  138.6884  161.4360 N.3     1  UNL1       -0.2913
      9 H         137.3443  138.6689  160.5860 H       1  UNL1        0.1236
     10 C         139.2117  138.0244  161.1066 C.3     1  UNL1        0.1152
     11 C         140.3998  138.2196  162.0011 C.ar    1  UNL1        0.0765
     12 C         140.5372  137.4058  163.2536 C.ar    1  UNL1        0.0193
     13 C         141.7254  137.6009  164.1483 C.ar    1  UNL1        0.0411
     14 C         142.7760  138.6099  163.7904 C.ar    1  UNL1        0.1708
     15 C         142.6385  139.4237  162.5378 C.ar    1  UNL1        0.1682
     16 N         141.4504  139.2285  161.6432 N.ar    1  UNL1       -0.2304
     17 N         143.6892  140.4327  162.1798 N.am    1  UNL1       -0.2639
     18 C         144.8773  140.6279  163.0745 C.2     1  UNL1        0.2718
     19 O         145.9279  141.6369  162.7166 O.2     1  UNL1       -0.2707
     20 C         145.0147  139.8141  164.3270 C.3     1  UNL1        0.2898
     21 O         143.9641  138.8051  164.6849 O.3     1  UNL1       -0.4628
     22 H         143.5989  140.9668  161.3578 H       1  UNL1        0.1565
     23 C         137.8419  144.3478  163.4279 C.3     1  UNL1        0.0970
     24 C         138.8433  144.7942  164.4516 C.3     1  UNL1        0.1263
     25 C         140.8885  141.8899  167.2143 C.ar    1  UNL1        0.0699
     26 C         142.3431  141.5748  167.0277 C.ar    1  UNL1        0.0104
     27 C         143.1160  142.2277  165.9204 C.ar    1  UNL1        0.0021
     28 C         142.4343  143.1958  164.9995 C.ar    1  UNL1        0.0161
     29 C         143.2071  143.8488  163.8921 C.ar    1  UNL1        0.0063
     30 C         142.5254  144.8169  162.9712 C.ar    1  UNL1        0.0608
     31 C         141.0708  145.1320  163.1577 C.ar    1  UNL1        0.2610
     32 O         140.3891  146.1001  162.2368 O.2     1  UNL1       -0.2670
     33 N         140.2979  144.4791  164.2651 N.ar    1  UNL1       -0.2941
     34 C         140.9797  143.5109  165.1860 C.ar    1  UNL1        0.0631
     35 C         140.2068  142.8580  166.2934 C.ar    1  UNL1        0.0275
     36 N         139.3427  140.5840  169.4290 N.1     1  UNL1       -0.1908
     37 C         140.1156  141.2369  168.3216 C.1     1  UNL1        0.1005
@<TRIPOS>BOND
     1    36    37    3
     2    37    25    1
     3    25    26   ar
     4    26    27   ar
     5    27    28   ar
     6    28    29   ar
     7    29    30   ar
     8    30    31   ar
     9    31    32    2
    10    31    33   ar
    11    33    24    1
    12    24    23    1
    13    23     1    1
    14     1     2    1
    15     2     3    1
    16     3     4    1
    17     4     8    1
    18     8    10    1
    19    10    11    1
    20    11    12   ar
    21    12    13   ar
    22    13    14   ar
    23    14    15   ar
    24    15    16   ar
    25    15    17    1
    26    17    18   am
    27    18    19    2
    28    18    20    1
    29    20    21    1
    30     4     5    1
    31     5     6    1
    32     5     7    1
    33    33    34   ar
    34    34    35   ar
    35    35    25   ar
    36    34    28   ar
    37     7     1    1
    38    16    11   ar
    39    21    14    1
    40     8     9    1
    41    17    22    1
@<TRIPOS>MOLECULE
*****
 37 41 0 0 0
SMALL
GASTEIGER

@<TRIPOS>ATOM
      1 N         141.8595  138.2786  164.0214 N.3     1  UNL1       -0.2687
      2 C         142.7559  138.7956  165.1074 C.3     1  UNL1        0.0737
      3 C         143.9899  139.5721  164.7550 C.3     1  UNL1        0.0359
      4 C         144.3275  139.8317  163.3168 C.3     1  UNL1        0.0901
      5 C         143.4311  139.3147  162.2309 C.3     1  UNL1        0.1911
      6 F         143.7688  139.5744  160.7926 F       1  UNL1       -0.2343
      7 C         142.1971  138.5382  162.5832 C.3     1  UNL1        0.1092
      8 N         145.5616  140.6083  162.9644 N.3     1  UNL1       -0.2913
      9 H         145.6720  140.5424  161.9526 H       1  UNL1        0.1236
     10 C         145.6583  142.0631  163.3168 C.3     1  UNL1        0.1152
     11 C         144.4596  142.9522  163.1677 C.ar    1  UNL1        0.0765
     12 C         143.8475  143.5949  164.3770 C.ar    1  UNL1        0.0193
     13 C         142.6486  144.4841  164.2279 C.ar    1  UNL1        0.0411
     14 C         142.0619  144.7306  162.8696 C.ar    1  UNL1        0.1708
     15 C         142.6741  144.0879  161.6603 C.ar    1  UNL1        0.1682
     16 N         143.8729  143.1987  161.8094 N.ar    1  UNL1       -0.2304
     17 N         142.0874  144.3344  160.3020 N.am    1  UNL1       -0.2639
     18 C         140.8885  145.2236  160.1530 C.2     1  UNL1        0.2718
     19 O         140.3019  145.4701  158.7947 O.2     1  UNL1       -0.2707
     20 C         140.2764  145.8662  161.3622 C.3     1  UNL1        0.2898
     21 O         140.8631  145.6197  162.7205 O.3     1  UNL1       -0.4628
     22 H         142.4891  143.9126  159.5083 H       1  UNL1        0.1565
     23 C         140.6254  137.5021  164.3738 C.3     1  UNL1        0.0970
     24 C         139.3902  138.2222  164.8273 C.3     1  UNL1        0.1263
     25 C         140.0771  142.3445  166.4958 C.ar    1  UNL1        0.0699
     26 C         139.5921  143.5484  165.7439 C.ar    1  UNL1        0.0104
     27 C         138.8781  143.3781  164.4357 C.ar    1  UNL1        0.0021
     28 C         138.6491  142.0040  163.8796 C.ar    1  UNL1        0.0161
     29 C         137.9351  141.8338  162.5714 C.ar    1  UNL1        0.0063
     30 C         137.7061  140.4597  162.0152 C.ar    1  UNL1        0.0608
     31 C         138.1911  139.2557  162.7672 C.ar    1  UNL1        0.2610
     32 O         137.9621  137.8817  162.2110 O.2     1  UNL1       -0.2670
     33 N         138.9051  139.4260  164.0753 N.ar    1  UNL1       -0.2941
     34 C         139.1341  140.8002  164.6315 C.ar    1  UNL1        0.0631
     35 C         139.8481  140.9704  165.9396 C.ar    1  UNL1        0.0275
     36 N         141.5051  142.6850  169.1121 N.1     1  UNL1       -0.1908
     37 C         140.7911  142.5148  167.8040 C.1     1  UNL1        0.1005
@<TRIPOS>BOND
     1    36    37    3
     2    37    25    1
     3    25    26   ar
     4    26    27   ar
     5    27    28   ar
     6    28    29   ar
     7    29    30   ar
     8    30    31   ar
     9    31    32    2
    10    31    33   ar
    11    33    24    1
    12    24    23    1
    13    23     1    1
    14     1     2    1
    15     2     3    1
    16     3     4    1
    17     4     8    1
    18     8    10    1
    19    10    11    1
    20    11    12   ar
    21    12    13   ar
    22    13    14   ar
    23    14    15   ar
    24    15    16   ar
    25    15    17    1
    26    17    18   am
    27    18    19    2
    28    18    20    1
    29    20    21    1
    30     4     5    1
    31     5     6    1
    32     5     7    1
    33    33    34   ar
    34    34    35   ar
    35    35    25   ar
    36    34    28   ar
    37     7     1    1
    38    16    11   ar
    39    21    14    1
    40     8     9    1
    41    17    22    1
@<TRIPOS>MOLECULE
*****
 37 41 0 0 0
SMALL
GASTEIGER

@<TRIPOS>ATOM
      1 N         138.2984  140.3525  163.6247 N.3     1  UNL1       -0.2687
      2 C         138.1284  141.3962  164.6886 C.3     1  UNL1        0.0737
      3 C         137.9399  142.8341  164.3054 C.3     1  UNL1        0.0359
      4 C         137.9213  143.2283  162.8583 C.3     1  UNL1        0.0901
      5 C         138.0912  142.1847  161.7944 C.3     1  UNL1        0.1911
      6 F         138.0726  142.5790  160.3472 F       1  UNL1       -0.2343
      7 C         138.2798  140.7468  162.1776 C.3     1  UNL1        0.1092
      8 N         137.7327  144.6662  162.4750 N.3     1  UNL1       -0.2913
      9 H         137.0953  145.0724  163.1600 H       1  UNL1        0.1236
     10 C         138.9181  145.5815  162.3905 C.3     1  UNL1        0.1152
     11 C         140.3052  145.0115  162.3610 C.ar    1  UNL1        0.0765
     12 C         141.1699  145.0790  163.5847 C.ar    1  UNL1        0.0193
     13 C         142.5571  144.5089  163.5553 C.ar    1  UNL1        0.0411
     14 C         143.0795  143.8714  162.3020 C.ar    1  UNL1        0.1708
     15 C         142.2147  143.8039  161.0782 C.ar    1  UNL1        0.1682
     16 N         140.8276  144.3739  161.1077 N.ar    1  UNL1       -0.2304
     17 N         142.7370  143.1664  159.8250 N.am    1  UNL1       -0.2639
     18 C         144.1242  142.5963  159.7955 C.2     1  UNL1        0.2718
     19 O         144.6466  141.9588  158.5422 O.2     1  UNL1       -0.2707
     20 C         144.9890  142.6638  161.0193 C.3     1  UNL1        0.2898
     21 O         144.4666  143.3013  162.2725 O.3     1  UNL1       -0.4628
     22 H         142.1695  143.1221  159.0217 H       1  UNL1        0.1565
     23 C         138.4870  138.9146  164.0079 C.3     1  UNL1        0.0970
     24 C         139.6870  138.5029  164.8082 C.3     1  UNL1        0.1263
     25 C         141.7897  141.8764  166.9173 C.ar    1  UNL1        0.0699
     26 C         143.1622  142.2946  166.4800 C.ar    1  UNL1        0.0104
     27 C         143.8338  141.5884  165.3398 C.ar    1  UNL1        0.0021
     28 C         143.1330  140.4640  164.6367 C.ar    1  UNL1        0.0161
     29 C         143.8046  139.7578  163.4965 C.ar    1  UNL1        0.0063
     30 C         143.1037  138.6333  162.7934 C.ar    1  UNL1        0.0608
     31 C         141.7312  138.2150  163.2307 C.ar    1  UNL1        0.2610
     32 O         141.0303  137.0905  162.5276 O.2     1  UNL1       -0.2670
     33 N         141.0595  138.9212  164.3709 N.ar    1  UNL1       -0.2941
     34 C         141.7605  140.0457  165.0740 C.ar    1  UNL1        0.0631
     35 C         141.0888  140.7519  166.2142 C.ar    1  UNL1        0.0275
     36 N         140.4464  143.2887  169.1978 N.1     1  UNL1       -0.1908
     37 C         141.1181  142.5825  168.0575 C.1     1  UNL1        0.1005
@<TRIPOS>BOND
     1    36    37    3
     2    37    25    1
     3    25    26   ar
     4    26    27   ar
     5    27    28   ar
     6    28    29   ar
     7    29    30   ar
     8    30    31   ar
     9    31    32    2
    10    31    33   ar
    11    33    24    1
    12    24    23    1
    13    23     1    1
    14     1     2    1
    15     2     3    1
    16     3     4    1
    17     4     8    1
    18     8    10    1
    19    10    11    1
    20    11    12   ar
    21    12    13   ar
    22    13    14   ar
    23    14    15   ar
    24    15    16   ar
    25    15    17    1
    26    17    18   am
    27    18    19    2
    28    18    20    1
    29    20    21    1
    30     4     5    1
    31     5     6    1
    32     5     7    1
    33    33    34   ar
    34    34    35   ar
    35    35    25   ar
    36    34    28   ar
    37     7     1    1
    38    16    11   ar
    39    21    14    1
    40     8     9    1
    41    17    22    1
@<TRIPOS>MOLECULE
*****
 37 41 0 0 0
SMALL
GASTEIGER

@<TRIPOS>ATOM
      1 N         143.4077  142.0293  163.9776 N.3     1  UNL1       -0.2687
      2 C         142.6968  142.8142  165.0399 C.3     1  UNL1        0.0737
      3 C         141.9882  144.0875  164.6839 C.3     1  UNL1        0.0359
      4 C         141.9905  144.5758  163.2657 C.3     1  UNL1        0.0901
      5 C         142.7014  143.7908  162.2034 C.3     1  UNL1        0.1911
      6 F         142.7037  144.2792  160.7850 F       1  UNL1       -0.2343
      7 C         143.4100  142.5176  162.5593 C.3     1  UNL1        0.1092
      8 N         141.2819  145.8490  162.9097 N.3     1  UNL1       -0.2913
      9 H         141.8585  146.3223  162.2140 H       1  UNL1        0.1236
     10 C         139.8880  145.8025  162.3577 C.3     1  UNL1        0.1152
     11 C         139.2020  144.4828  162.1632 C.ar    1  UNL1        0.0765
     12 C         138.3793  143.8948  163.2710 C.ar    1  UNL1        0.0193
     13 C         137.6933  142.5750  163.0766 C.ar    1  UNL1        0.0411
     14 C         137.8300  141.8434  161.7743 C.ar    1  UNL1        0.1708
     15 C         138.6529  142.4314  160.6664 C.ar    1  UNL1        0.1682
     16 N         139.3388  143.7511  160.8609 N.ar    1  UNL1       -0.2304
     17 N         138.7896  141.6998  159.3642 N.am    1  UNL1       -0.2639
     18 C         138.1036  140.3800  159.1697 C.2     1  UNL1        0.2718
     19 O         138.2404  139.6483  157.8674 O.2     1  UNL1       -0.2707
     20 C         137.2809  139.7920  160.2775 C.3     1  UNL1        0.2898
     21 O         137.1441  140.5237  161.5798 O.3     1  UNL1       -0.4628
     22 H         139.3297  142.0857  158.6371 H       1  UNL1        0.1565
     23 C         144.1163  140.7560  164.3336 C.3     1  UNL1        0.0970
     24 C         143.4274  139.7251  165.1777 C.3     1  UNL1        0.1263
     25 C         139.5932  139.7855  167.5325 C.ar    1  UNL1        0.0699
     26 C         138.3800  139.0760  167.0085 C.ar    1  UNL1        0.0104
     27 C         138.4448  138.3463  165.6996 C.ar    1  UNL1        0.0021
     28 C         139.7229  138.3261  164.9147 C.ar    1  UNL1        0.0161
     29 C         139.7877  137.5964  163.6057 C.ar    1  UNL1        0.0063
     30 C         141.0657  137.5762  162.8208 C.ar    1  UNL1        0.0608
     31 C         142.2790  138.2858  163.3448 C.ar    1  UNL1        0.2610
     32 O         143.5570  138.2657  162.5598 O.2     1  UNL1       -0.2670
     33 N         142.2142  139.0155  164.6537 N.ar    1  UNL1       -0.2941
     34 C         140.9361  139.0357  165.4386 C.ar    1  UNL1        0.0631
     35 C         140.8712  139.7654  166.7476 C.ar    1  UNL1        0.0275
     36 N         139.4636  141.2449  170.1504 N.1     1  UNL1       -0.1908
     37 C         139.5284  140.5152  168.8415 C.1     1  UNL1        0.1005
@<TRIPOS>BOND
     1    36    37    3
     2    37    25    1
     3    25    26   ar
     4    26    27   ar
     5    27    28   ar
     6    28    29   ar
     7    29    30   ar
     8    30    31   ar
     9    31    32    2
    10    31    33   ar
    11    33    24    1
    12    24    23    1
    13    23     1    1
    14     1     2    1
    15     2     3    1
    16     3     4    1
    17     4     8    1
    18     8    10    1
    19    10    11    1
    20    11    12   ar
    21    12    13   ar
    22    13    14   ar
    23    14    15   ar
    24    15    16   ar
    25    15    17    1
    26    17    18   am
    27    18    19    2
    28    18    20    1
    29    20    21    1
    30     4     5    1
    31     5     6    1
    32     5     7    1
    33    33    34   ar
    34    34    35   ar
    35    35    25   ar
    36    34    28   ar
    37     7     1    1
    38    16    11   ar
    39    21    14    1
    40     8     9    1
    41    17    22    1
@<TRIPOS>MOLECULE
*****
 37 41 0 0 0
SMALL
GASTEIGER

@<TRIPOS>ATOM
      1 N         142.8416  138.6682  163.0851 N.3     1  UNL1       -0.2687
      2 C         142.6650  138.9768  161.6278 C.3     1  UNL1        0.0737
      3 C         141.3328  138.7638  160.9722 C.3     1  UNL1        0.0359
      4 C         140.1773  138.2422  161.7738 C.3     1  UNL1        0.0901
      5 C         140.3539  137.9335  163.2310 C.3     1  UNL1        0.1911
      6 F         139.1983  137.4118  164.0326 F       1  UNL1       -0.2343
      7 C         141.6861  138.1465  163.8866 C.3     1  UNL1        0.1092
      8 N         138.8450  138.0291  161.1181 N.3     1  UNL1       -0.2913
      9 H         138.5046  137.1201  161.4314 H       1  UNL1        0.1236
     10 C         137.7325  139.0095  161.3443 C.3     1  UNL1        0.1152
     11 C         138.0446  140.4592  161.5699 C.ar    1  UNL1        0.0765
     12 C         137.4036  141.1960  162.7083 C.ar    1  UNL1        0.0193
     13 C         137.7157  142.6458  162.9339 C.ar    1  UNL1        0.0411
     14 C         138.6689  143.3586  162.0211 C.ar    1  UNL1        0.1708
     15 C         139.3099  142.6217  160.8826 C.ar    1  UNL1        0.1682
     16 N         138.9978  141.1720  160.6570 N.ar    1  UNL1       -0.2304
     17 N         140.2631  143.3346  159.9697 N.am    1  UNL1       -0.2639
     18 C         140.5752  144.7843  160.1953 C.2     1  UNL1        0.2718
     19 O         141.5283  145.4972  159.2824 O.2     1  UNL1       -0.2707
     20 C         139.9341  145.5212  161.3337 C.3     1  UNL1        0.2898
     21 O         138.9810  144.8083  162.2466 O.3     1  UNL1       -0.4628
     22 H         140.6838  142.8509  159.2225 H       1  UNL1        0.1565
     23 C         144.1738  138.8812  163.7407 C.3     1  UNL1        0.0970
     24 C         144.4036  140.0916  164.5964 C.3     1  UNL1        0.1263
     25 C         140.5924  141.5115  166.5222 C.ar    1  UNL1        0.0699
     26 C         139.9998  142.8319  166.1283 C.ar    1  UNL1        0.0104
     27 C         140.6776  143.6791  165.0925 C.ar    1  UNL1        0.0021
     28 C         141.9480  143.2058  164.4505 C.ar    1  UNL1        0.0161
     29 C         142.6257  144.0530  163.4147 C.ar    1  UNL1        0.0063
     30 C         143.8961  143.5797  162.7728 C.ar    1  UNL1        0.0608
     31 C         144.4888  142.2592  163.1667 C.ar    1  UNL1        0.2610
     32 O         145.7591  141.7859  162.5247 O.2     1  UNL1       -0.2670
     33 N         143.8110  141.4120  164.2025 N.ar    1  UNL1       -0.2941
     34 C         142.5406  141.8854  164.8444 C.ar    1  UNL1        0.0631
     35 C         141.8628  141.0382  165.8803 C.ar    1  UNL1        0.0275
     36 N         139.2369  139.8171  168.5939 N.1     1  UNL1       -0.1908
     37 C         139.9147  140.6643  167.5580 C.1     1  UNL1        0.1005
@<TRIPOS>BOND
     1    36    37    3
     2    37    25    1
     3    25    26   ar
     4    26    27   ar
     5    27    28   ar
     6    28    29   ar
     7    29    30   ar
     8    30    31   ar
     9    31    32    2
    10    31    33   ar
    11    33    24    1
    12    24    23    1
    13    23     1    1
    14     1     2    1
    15     2     3    1
    16     3     4    1
    17     4     8    1
    18     8    10    1
    19    10    11    1
    20    11    12   ar
    21    12    13   ar
    22    13    14   ar
    23    14    15   ar
    24    15    16   ar
    25    15    17    1
    26    17    18   am
    27    18    19    2
    28    18    20    1
    29    20    21    1
    30     4     5    1
    31     5     6    1
    32     5     7    1
    33    33    34   ar
    34    34    35   ar
    35    35    25   ar
    36    34    28   ar
    37     7     1    1
    38    16    11   ar
    39    21    14    1
    40     8     9    1
    41    17    22    1
@<TRIPOS>MOLECULE
*****
 37 41 0 0 0
SMALL
GASTEIGER

@<TRIPOS>ATOM
      1 N         139.8223  143.9042  163.7671 N.3     1  UNL1       -0.2687
      2 C         140.9067  144.5721  162.9747 C.3     1  UNL1        0.0737
      3 C         142.3351  144.4656  163.4199 C.3     1  UNL1        0.0359
      4 C         142.6791  143.6912  164.6576 C.3     1  UNL1        0.0901
      5 C         141.5947  143.0233  165.4500 C.3     1  UNL1        0.1911
      6 F         141.9388  142.2488  166.6877 F       1  UNL1       -0.2343
      7 C         140.1663  143.1298  165.0047 C.3     1  UNL1        0.1092
      8 N         144.1076  143.5847  165.1029 N.3     1  UNL1       -0.2913
      9 H         144.0904  143.2895  166.0791 H       1  UNL1        0.1236
     10 C         145.0492  142.6617  164.3878 C.3     1  UNL1        0.1152
     11 C         144.5286  141.4116  163.7426 C.ar    1  UNL1        0.0765
     12 C         144.0832  140.2586  164.5923 C.ar    1  UNL1        0.0193
     13 C         143.5626  139.0085  163.9471 C.ar    1  UNL1        0.0411
     14 C         143.4874  138.9115  162.4521 C.ar    1  UNL1        0.1708
     15 C         143.9328  140.0646  161.6024 C.ar    1  UNL1        0.1682
     16 N         144.4534  141.3146  162.2476 N.ar    1  UNL1       -0.2304
     17 N         143.8576  139.9676  160.1074 N.am    1  UNL1       -0.2639
     18 C         143.3370  138.7175  159.4622 C.2     1  UNL1        0.2718
     19 O         143.2618  138.6205  157.9672 O.2     1  UNL1       -0.2707
     20 C         142.8916  137.5645  160.3119 C.3     1  UNL1        0.2898
     21 O         142.9668  137.6615  161.8069 O.3     1  UNL1       -0.4628
     22 H         144.1499  140.7244  159.5497 H       1  UNL1        0.1565
     23 C         138.3939  144.0107  163.3218 C.3     1  UNL1        0.0970
     24 C         137.6560  142.7856  162.8693 C.3     1  UNL1        0.1263
     25 C         138.4909  138.9043  164.9878 C.ar    1  UNL1        0.0699
     26 C         139.2254  137.8056  164.2784 C.ar    1  UNL1        0.0104
     27 C         139.6816  138.0006  162.8629 C.ar    1  UNL1        0.0021
     28 C         139.4033  139.2944  162.1567 C.ar    1  UNL1        0.0161
     29 C         139.8596  139.4894  160.7411 C.ar    1  UNL1        0.0063
     30 C         139.5813  140.7832  160.0350 C.ar    1  UNL1        0.0608
     31 C         138.8467  141.8820  160.7443 C.ar    1  UNL1        0.2610
     32 O         138.5684  143.1757  160.0382 O.2     1  UNL1       -0.2670
     33 N         138.3905  141.6869  162.1599 N.ar    1  UNL1       -0.2941
     34 C         138.6688  140.3931  162.8661 C.ar    1  UNL1        0.0631
     35 C         138.2126  140.1981  164.2817 C.ar    1  UNL1        0.0275
     36 N         137.5785  138.5142  167.8190 N.1     1  UNL1       -0.1908
     37 C         138.0347  138.7093  166.4034 C.1     1  UNL1        0.1005
@<TRIPOS>BOND
     1    36    37    3
     2    37    25    1
     3    25    26   ar
     4    26    27   ar
     5    27    28   ar
     6    28    29   ar
     7    29    30   ar
     8    30    31   ar
     9    31    32    2
    10    31    33   ar
    11    33    24    1
    12    24    23    1
    13    23     1    1
    14     1     2    1
    15     2     3    1
    16     3     4    1
    17     4     8    1
    18     8    10    1
    19    10    11    1
    20    11    12   ar
    21    12    13   ar
    22    13    14   ar
    23    14    15   ar
    24    15    16   ar
    25    15    17    1
    26    17    18   am
    27    18    19    2
    28    18    20    1
    29    20    21    1
    30     4     5    1
    31     5     6    1
    32     5     7    1
    33    33    34   ar
    34    34    35   ar
    35    35    25   ar
    36    34    28   ar
    37     7     1    1
    38    16    11   ar
    39    21    14    1
    40     8     9    1
    41    17    22    1
@<TRIPOS>MOLECULE
*****
 37 41 0 0 0
SMALL
GASTEIGER

@<TRIPOS>ATOM
      1 N         144.0781  139.9206  162.8255 N.3     1  UNL1       -0.2687
      2 C         143.4920  140.2933  161.4960 C.3     1  UNL1        0.0737
      3 C         142.2785  139.5759  160.9836 C.3     1  UNL1        0.0359
      4 C         141.6510  138.4858  161.8008 C.3     1  UNL1        0.0901
      5 C         142.2370  138.1131  163.1303 C.3     1  UNL1        0.1911
      6 F         141.6094  137.0230  163.9475 F       1  UNL1       -0.2343
      7 C         143.4505  138.8305  163.6427 C.3     1  UNL1        0.1092
      8 N         140.4373  137.7684  161.2884 N.3     1  UNL1       -0.2913
      9 H         140.6633  136.7737  161.2839 H       1  UNL1        0.1236
     10 C         139.1251  137.9111  162.0010 C.3     1  UNL1        0.1152
     11 C         138.8029  139.1806  162.7321 C.ar    1  UNL1        0.0765
     12 C         138.4081  139.1335  164.1784 C.ar    1  UNL1        0.0193
     13 C         138.0859  140.4030  164.9097 C.ar    1  UNL1        0.0411
     14 C         138.1585  141.7195  164.1945 C.ar    1  UNL1        0.1708
     15 C         138.5533  141.7666  162.7481 C.ar    1  UNL1        0.1682
     16 N         138.8755  140.4971  162.0170 N.ar    1  UNL1       -0.2304
     17 N         138.6259  143.0831  162.0329 N.am    1  UNL1       -0.2639
     18 C         138.3037  144.3526  162.7641 C.2     1  UNL1        0.2718
     19 O         138.3763  145.6691  162.0489 O.2     1  UNL1       -0.2707
     20 C         137.9089  144.3055  164.2104 C.3     1  UNL1        0.2898
     21 O         137.8363  142.9890  164.9256 O.3     1  UNL1       -0.4628
     22 H         138.8850  143.1140  161.0836 H       1  UNL1        0.1565
     23 C         145.2917  140.6381  163.3379 C.3     1  UNL1        0.0970
     24 C         145.1426  141.7373  164.3476 C.3     1  UNL1        0.1263
     25 C         142.2151  140.8414  167.6456 C.ar    1  UNL1        0.0699
     26 C         140.9289  141.6079  167.7354 C.ar    1  UNL1        0.0104
     27 C         140.6184  142.6730  166.7259 C.ar    1  UNL1        0.0021
     28 C         141.5942  142.9716  165.6265 C.ar    1  UNL1        0.0161
     29 C         141.2838  144.0367  164.6170 C.ar    1  UNL1        0.0063
     30 C         142.2596  144.3354  163.5177 C.ar    1  UNL1        0.0608
     31 C         143.5459  143.5689  163.4278 C.ar    1  UNL1        0.2610
     32 O         144.5217  143.8676  162.3285 O.2     1  UNL1       -0.2670
     33 N         143.8563  142.5038  164.4374 N.ar    1  UNL1       -0.2941
     34 C         142.8805  142.2052  165.5367 C.ar    1  UNL1        0.0631
     35 C         143.1909  141.1400  166.5463 C.ar    1  UNL1        0.0275
     36 N         142.8359  138.7112  169.6647 N.1     1  UNL1       -0.1908
     37 C         142.5255  139.7763  168.6551 C.1     1  UNL1        0.1005
@<TRIPOS>BOND
     1    36    37    3
     2    37    25    1
     3    25    26   ar
     4    26    27   ar
     5    27    28   ar
     6    28    29   ar
     7    29    30   ar
     8    30    31   ar
     9    31    32    2
    10    31    33   ar
    11    33    24    1
    12    24    23    1
    13    23     1    1
    14     1     2    1
    15     2     3    1
    16     3     4    1
    17     4     8    1
    18     8    10    1
    19    10    11    1
    20    11    12   ar
    21    12    13   ar
    22    13    14   ar
    23    14    15   ar
    24    15    16   ar
    25    15    17    1
    26    17    18   am
    27    18    19    2
    28    18    20    1
    29    20    21    1
    30     4     5    1
    31     5     6    1
    32     5     7    1
    33    33    34   ar
    34    34    35   ar
    35    35    25   ar
    36    34    28   ar
    37     7     1    1
    38    16    11   ar
    39    21    14    1
    40     8     9    1
    41    17    22    1
@<TRIPOS>MOLECULE
*****
 37 41 0 0 0
SMALL
GASTEIGER

@<TRIPOS>ATOM
      1 N         137.8961  141.1346  161.2943 N.3     1  UNL1       -0.2687
      2 C         138.9194  142.0275  160.6575 C.3     1  UNL1        0.0737
      3 C         139.4183  143.2378  161.3898 C.3     1  UNL1        0.0359
      4 C         138.8940  143.5550  162.7589 C.3     1  UNL1        0.0901
      5 C         137.8708  142.6620  163.3956 C.3     1  UNL1        0.1911
      6 F         137.3465  142.9793  164.7648 F       1  UNL1       -0.2343
      7 C         137.3718  141.4518  162.6633 C.3     1  UNL1        0.1092
      8 N         139.3930  144.7653  163.4913 N.3     1  UNL1       -0.2913
      9 H         138.7771  144.8989  164.2932 H       1  UNL1        0.1236
     10 C         140.7985  144.7989  164.0143 C.3     1  UNL1        0.1152
     11 C         141.3073  143.6769  164.8699 C.ar    1  UNL1        0.0765
     12 C         142.6921  143.1408  164.6580 C.ar    1  UNL1        0.0193
     13 C         143.2010  142.0187  165.5136 C.ar    1  UNL1        0.0411
     14 C         142.3251  141.4327  166.5811 C.ar    1  UNL1        0.1708
     15 C         140.9402  141.9689  166.7929 C.ar    1  UNL1        0.1682
     16 N         140.4314  143.0910  165.9373 N.ar    1  UNL1       -0.2304
     17 N         140.0643  141.3830  167.8604 N.am    1  UNL1       -0.2639
     18 C         140.5732  140.2609  168.7160 C.2     1  UNL1        0.2718
     19 O         139.6973  139.6750  169.7835 O.2     1  UNL1       -0.2707
     20 C         141.9580  139.7248  168.5041 C.3     1  UNL1        0.2898
     21 O         142.8339  140.3107  167.4367 O.3     1  UNL1       -0.4628
     22 H         139.1554  141.7349  167.9995 H       1  UNL1        0.1565
     23 C         137.3971  139.9243  160.5619 C.3     1  UNL1        0.0970
     24 C         137.9938  138.5775  160.8449 C.3     1  UNL1        0.1263
     25 C         139.3390  138.2838  165.1291 C.ar    1  UNL1        0.0699
     26 C         140.7992  138.1629  165.4501 C.ar    1  UNL1        0.0104
     27 C         141.8110  138.1399  164.3430 C.ar    1  UNL1        0.0021
     28 C         141.3627  138.2377  162.9150 C.ar    1  UNL1        0.0161
     29 C         142.3746  138.2147  161.8079 C.ar    1  UNL1        0.0063
     30 C         141.9262  138.3126  160.3799 C.ar    1  UNL1        0.0608
     31 C         140.4659  138.4335  160.0588 C.ar    1  UNL1        0.2610
     32 O         140.0175  138.5314  158.6308 O.2     1  UNL1       -0.2670
     33 N         139.4540  138.4565  161.1659 N.ar    1  UNL1       -0.2941
     34 C         139.9025  138.3587  162.5940 C.ar    1  UNL1        0.0631
     35 C         138.8906  138.3817  163.7011 C.ar    1  UNL1        0.0275
     36 N         137.3152  138.3299  167.3432 N.1     1  UNL1       -0.1908
     37 C         138.3271  138.3069  166.2362 C.1     1  UNL1        0.1005
@<TRIPOS>BOND
     1    36    37    3
     2    37    25    1
     3    25    26   ar
     4    26    27   ar
     5    27    28   ar
     6    28    29   ar
     7    29    30   ar
     8    30    31   ar
     9    31    32    2
    10    31    33   ar
    11    33    24    1
    12    24    23    1
    13    23     1    1
    14     1     2    1
    15     2     3    1
    16     3     4    1
    17     4     8    1
    18     8    10    1
    19    10    11    1
    20    11    12   ar
    21    12    13   ar
    22    13    14   ar
    23    14    15   ar
    24    15    16   ar
    25    15    17    1
    26    17    18   am
    27    18    19    2
    28    18    20    1
    29    20    21    1
    30     4     5    1
    31     5     6    1
    32     5     7    1
    33    33    34   ar
    34    34    35   ar
    35    35    25   ar
    36    34    28   ar
    37     7     1    1
    38    16    11   ar
    39    21    14    1
    40     8     9    1
    41    17    22    1
