@<TRIPOS>MOLECULE
*****
 36 39 0 0 0
SMALL
GASTEIGER

@<TRIPOS>ATOM
      1 N         142.8072  143.4444  163.5398 N.am    1  UNL1       -0.2798
      2 C         143.9047  144.2297  164.1947 C.3     1  UNL1        0.0956
      3 C         144.2574  143.5475  165.4832 C.3     1  UNL1        0.0504
      4 C         143.3778  142.3407  165.6247 C.3     1  UNL1        0.1495
      5 C         142.4816  142.2770  164.4236 C.2     1  UNL1        0.2435
      6 O         141.4422  141.2298  164.1537 O.2     1  UNL1       -0.2731
      7 C         140.9175  144.6231  162.2020 C.3     1  UNL1        0.0196
      8 C         140.2608  144.9482  160.8931 C.3     1  UNL1        0.0176
      9 C         140.8373  144.4197  159.6132 C.3     1  UNL1        0.0576
     10 C         142.0704  143.5660  159.6421 C.3     1  UNL1        0.0177
     11 C         142.7271  143.2410  160.9510 C.3     1  UNL1        0.0212
     12 C         142.1506  143.7695  162.2309 C.3     1  UNL1        0.0754
     13 N         140.1808  144.7447  158.3042 N.3     1  UNL1       -0.2741
     14 C         140.3204  146.1172  157.7154 C.3     1  UNL1        0.0896
     15 C         139.3846  143.6970  157.5841 C.3     1  UNL1        0.0576
     16 C         139.3615  143.6716  156.0845 C.3     1  UNL1        0.0173
     17 C         138.6116  142.6749  158.3635 C.3     1  UNL1        0.0173
     18 C         140.3410  145.1517  163.4819 C.3     1  UNL1        0.0017
     19 C         138.6598  144.9076  165.4477 C.3     1  UNL1        0.0000
     20 C         139.1238  144.5089  164.0781 C.3     1  UNL1        0.0001
     21 N         143.3920  141.3684  166.7668 N.pl3   1  UNL1       -0.3122
     22 H         143.7826  140.4728  166.6460 H       1  UNL1        0.1486
     23 C         142.8111  141.7606  168.0930 C.ar    1  UNL1        0.1319
     24 N         143.5884  142.6483  169.0192 N.ar    1  UNL1       -0.2092
     25 C         143.0075  143.0404  170.3454 C.ar    1  UNL1        0.2000
     26 N         141.6494  142.5450  170.7453 N.ar    1  UNL1       -0.2239
     27 C         140.8721  141.6574  169.8191 C.ar    1  UNL1        0.0857
     28 C         139.5139  141.1620  170.2190 C.ar    1  UNL1        0.0192
     29 C         138.7367  140.2743  169.2928 C.ar    1  UNL1        0.0054
     30 C         139.3175  139.8821  167.9666 C.ar    1  UNL1        0.0716
     31 C         140.6757  140.3775  167.5666 C.ar    1  UNL1        0.0081
     32 C         141.4530  141.2652  168.4930 C.ar    1  UNL1        0.0491
     33 C         138.5403  138.9945  167.0404 C.3     1  UNL1        0.4186
     34 F         137.7629  138.1068  166.1141 F       1  UNL1       -0.1659
     35 F         139.5903  139.1765  165.9847 F       1  UNL1       -0.1659
     36 F         137.4903  138.8124  168.0960 F       1  UNL1       -0.1659
@<TRIPOS>BOND
     1    19    20    1
     2    20    18    1
     3     7    18    1
     4     7     8    1
     5     8     9    1
     6     9    13    1
     7    13    14    1
     8    13    15    1
     9    15    16    1
    10    15    17    1
    11     9    10    1
    12    10    11    1
    13    11    12    1
    14    12     1    1
    15     1     2    1
    16     2     3    1
    17     3     4    1
    18     4    21    1
    19    21    23    1
    20    23    24   ar
    21    24    25   ar
    22    25    26   ar
    23    26    27   ar
    24    27    28   ar
    25    28    29   ar
    26    29    30   ar
    27    30    33    1
    28    33    34    1
    29    33    35    1
    30    33    36    1
    31    30    31   ar
    32    31    32   ar
    33     4     5    1
    34     5     6    2
    35    12     7    1
    36     5     1   am
    37    32    23   ar
    38    32    27   ar
    39    21    22    1
@<TRIPOS>MOLECULE
*****
 36 39 0 0 0
SMALL
GASTEIGER

@<TRIPOS>ATOM
      1 N         142.6587  143.6979  162.4855 N.am    1  UNL1       -0.2798
      2 C         143.5998  144.5548  163.2793 C.3     1  UNL1        0.0956
      3 C         144.0027  143.7888  164.5045 C.3     1  UNL1        0.0504
      4 C         143.3106  142.4585  164.4679 C.3     1  UNL1        0.1495
      5 C         142.4800  142.4023  163.2201 C.2     1  UNL1        0.2435
      6 O         141.6214  141.2525  162.7835 O.2     1  UNL1       -0.2731
      7 C         140.8248  144.9901  161.1752 C.3     1  UNL1        0.0196
      8 C         140.1762  145.3633  159.8752 C.3     1  UNL1        0.0176
      9 C         140.7131  144.8173  158.5854 C.3     1  UNL1        0.0576
     10 C         141.8986  143.8982  158.5956 C.3     1  UNL1        0.0177
     11 C         142.5471  143.5251  159.8957 C.3     1  UNL1        0.0212
     12 C         142.0102  144.0710  161.1855 C.3     1  UNL1        0.0754
     13 N         140.0647  145.1904  157.2852 N.3     1  UNL1       -0.2741
     14 C         140.0625  146.6199  156.8311 C.3     1  UNL1        0.0896
     15 C         139.4184  144.1337  156.4391 C.3     1  UNL1        0.0576
     16 C         139.5707  144.1703  154.9474 C.3     1  UNL1        0.0173
     17 C         138.6198  143.0404  157.0849 C.3     1  UNL1        0.0173
     18 C         140.2879  145.5361  162.4650 C.3     1  UNL1        0.0017
     19 C         139.2423  144.7656  164.7152 C.3     1  UNL1        0.0000
     20 C         139.2295  144.7832  163.2154 C.3     1  UNL1        0.0001
     21 N         143.4285  141.3747  165.4981 N.pl3   1  UNL1       -0.3122
     22 H         144.0363  140.6152  165.3463 H       1  UNL1        0.1486
     23 C         142.6203  141.4480  166.7597 C.ar    1  UNL1        0.1319
     24 N         143.1053  142.2739  167.9141 N.ar    1  UNL1       -0.2092
     25 C         142.2971  142.3472  169.1756 C.ar    1  UNL1        0.2000
     26 N         141.0040  141.5946  169.2827 N.ar    1  UNL1       -0.2239
     27 C         140.5190  140.7688  168.1283 C.ar    1  UNL1        0.0857
     28 C         139.2259  140.0162  168.2354 C.ar    1  UNL1        0.0192
     29 C         138.7410  139.1903  167.0810 C.ar    1  UNL1        0.0054
     30 C         139.5492  139.1170  165.8194 C.ar    1  UNL1        0.0716
     31 C         140.8423  139.8695  165.7123 C.ar    1  UNL1        0.0081
     32 C         141.3272  140.6954  166.8668 C.ar    1  UNL1        0.0491
     33 C         139.0642  138.2911  164.6650 C.3     1  UNL1        0.4186
     34 F         138.5792  137.4651  163.5106 F       1  UNL1       -0.1659
     35 F         139.1797  139.4840  163.7631 F       1  UNL1       -0.1659
     36 F         138.9487  137.0982  165.5669 F       1  UNL1       -0.1659
@<TRIPOS>BOND
     1    19    20    1
     2    20    18    1
     3     7    18    1
     4     7     8    1
     5     8     9    1
     6     9    13    1
     7    13    14    1
     8    13    15    1
     9    15    16    1
    10    15    17    1
    11     9    10    1
    12    10    11    1
    13    11    12    1
    14    12     1    1
    15     1     2    1
    16     2     3    1
    17     3     4    1
    18     4    21    1
    19    21    23    1
    20    23    24   ar
    21    24    25   ar
    22    25    26   ar
    23    26    27   ar
    24    27    28   ar
    25    28    29   ar
    26    29    30   ar
    27    30    33    1
    28    33    34    1
    29    33    35    1
    30    33    36    1
    31    30    31   ar
    32    31    32   ar
    33     4     5    1
    34     5     6    2
    35    12     7    1
    36     5     1   am
    37    32    23   ar
    38    32    27   ar
    39    21    22    1
@<TRIPOS>MOLECULE
*****
 36 39 0 0 0
SMALL
GASTEIGER

@<TRIPOS>ATOM
      1 N         140.5066  143.6008  164.1899 N.am    1  UNL1       -0.2798
      2 C         140.8362  144.8987  163.5142 C.3     1  UNL1        0.0956
      3 C         140.0537  144.9678  162.2363 C.3     1  UNL1        0.0504
      4 C         139.2406  143.7125  162.1222 C.3     1  UNL1        0.1495
      5 C         139.5205  142.8676  163.3296 C.2     1  UNL1        0.2435
      6 O         138.9197  141.5253  163.6249 O.2     1  UNL1       -0.2731
      7 C         142.4839  142.6399  165.5745 C.3     1  UNL1        0.0196
      8 C         143.0424  142.1594  166.8811 C.3     1  UNL1        0.0176
      9 C         142.1819  142.1592  168.1097 C.3     1  UNL1        0.0576
     10 C         140.7631  142.6396  168.0318 C.3     1  UNL1        0.0177
     11 C         140.2046  143.1201  166.7252 C.3     1  UNL1        0.0212
     12 C         141.0650  143.1202  165.4965 C.3     1  UNL1        0.0754
     13 N         142.7403  141.6787  169.4164 N.3     1  UNL1       -0.2741
     14 C         143.9790  142.3095  169.9801 C.3     1  UNL1        0.0896
     15 C         142.0598  140.5674  170.1594 C.3     1  UNL1        0.0576
     16 C         141.0248  140.8832  171.1981 C.3     1  UNL1        0.0173
     17 C         142.4145  139.1403  169.8637 C.3     1  UNL1        0.0173
     18 C         143.3443  142.6400  164.3458 C.3     1  UNL1        0.0017
     19 C         145.6948  141.6672  163.8174 C.3     1  UNL1        0.0000
     20 C         144.8372  142.7071  164.4756 C.3     1  UNL1        0.0001
     21 N         138.3108  143.3634  160.9981 N.pl3   1  UNL1       -0.3122
     22 H         137.3417  143.5043  161.0990 H       1  UNL1        0.1486
     23 C         138.8576  142.7996  159.7201 C.ar    1  UNL1        0.1319
     24 N         139.1591  143.7103  158.5670 N.ar    1  UNL1       -0.2092
     25 C         139.7059  143.1464  157.2891 C.ar    1  UNL1        0.2000
     26 N         139.9512  141.6719  157.1643 N.ar    1  UNL1       -0.2239
     27 C         139.6498  140.7612  158.3174 C.ar    1  UNL1        0.0857
     28 C         139.8951  139.2867  158.1926 C.ar    1  UNL1        0.0192
     29 C         139.5937  138.3760  159.3457 C.ar    1  UNL1        0.0054
     30 C         139.0469  138.9398  160.6237 C.ar    1  UNL1        0.0716
     31 C         138.8015  140.4143  160.7485 C.ar    1  UNL1        0.0081
     32 C         139.1030  141.3250  159.5953 C.ar    1  UNL1        0.0491
     33 C         138.7454  138.0291  161.7768 C.3     1  UNL1        0.4186
     34 F         138.4440  137.1183  162.9300 F       1  UNL1       -0.1659
     35 F         137.3088  138.4589  161.7407 F       1  UNL1       -0.1659
     36 F         140.1820  137.5992  161.8129 F       1  UNL1       -0.1659
@<TRIPOS>BOND
     1    19    20    1
     2    20    18    1
     3     7    18    1
     4     7     8    1
     5     8     9    1
     6     9    13    1
     7    13    14    1
     8    13    15    1
     9    15    16    1
    10    15    17    1
    11     9    10    1
    12    10    11    1
    13    11    12    1
    14    12     1    1
    15     1     2    1
    16     2     3    1
    17     3     4    1
    18     4    21    1
    19    21    23    1
    20    23    24   ar
    21    24    25   ar
    22    25    26   ar
    23    26    27   ar
    24    27    28   ar
    25    28    29   ar
    26    29    30   ar
    27    30    33    1
    28    33    34    1
    29    33    35    1
    30    33    36    1
    31    30    31   ar
    32    31    32   ar
    33     4     5    1
    34     5     6    2
    35    12     7    1
    36     5     1   am
    37    32    23   ar
    38    32    27   ar
    39    21    22    1
@<TRIPOS>MOLECULE
*****
 36 39 0 0 0
SMALL
GASTEIGER

@<TRIPOS>ATOM
      1 N         139.0030  140.8415  164.1611 N.am    1  UNL1       -0.2798
      2 C         137.5917  141.0237  163.6869 C.3     1  UNL1        0.0956
      3 C         137.5363  140.6400  162.2379 C.3     1  UNL1        0.0504
      4 C         138.9135  140.2205  161.8165 C.3     1  UNL1        0.1495
      5 C         139.8199  140.3451  163.0051 C.2     1  UNL1        0.2435
      6 O         141.2859  140.0288  163.0329 O.2     1  UNL1       -0.2731
      7 C         140.1066  142.4427  165.8840 C.3     1  UNL1        0.0196
      8 C         140.6123  142.7099  167.2707 C.3     1  UNL1        0.0176
      9 C         140.5201  141.6431  168.3211 C.3     1  UNL1        0.0576
     10 C         139.9222  140.3091  167.9849 C.3     1  UNL1        0.0177
     11 C         139.4165  140.0419  166.5982 C.3     1  UNL1        0.0212
     12 C         139.5087  141.1087  165.5478 C.3     1  UNL1        0.0754
     13 N         141.0258  141.9102  169.7079 N.3     1  UNL1       -0.2741
     14 C         140.1350  142.5731  170.7164 C.3     1  UNL1        0.0896
     15 C         142.4223  141.5144  170.0860 C.3     1  UNL1        0.0576
     16 C         143.5467  142.4958  169.9361 C.3     1  UNL1        0.0173
     17 C         142.6945  140.1371  170.6141 C.3     1  UNL1        0.0173
     18 C         140.1988  143.5094  164.8336 C.3     1  UNL1        0.0017
     19 C         138.3582  144.5572  163.3288 C.3     1  UNL1        0.0000
     20 C         139.0690  144.4783  164.6473 C.3     1  UNL1        0.0001
     21 N         139.3138  139.7578  160.4470 N.pl3   1  UNL1       -0.3122
     22 H         139.7634  138.8894  160.3327 H       1  UNL1        0.1486
     23 C         139.0293  140.6182  159.2516 C.ar    1  UNL1        0.1319
     24 N         138.2539  140.0617  158.0945 N.ar    1  UNL1       -0.2092
     25 C         137.9695  140.9222  156.8992 C.ar    1  UNL1        0.2000
     26 N         138.4603  142.3391  156.8611 N.ar    1  UNL1       -0.2239
     27 C         139.2356  142.8955  158.0183 C.ar    1  UNL1        0.0857
     28 C         139.7265  144.3125  157.9802 C.ar    1  UNL1        0.0192
     29 C         140.5018  144.8689  159.1374 C.ar    1  UNL1        0.0054
     30 C         140.7864  144.0085  160.3327 C.ar    1  UNL1        0.0716
     31 C         140.2955  142.5916  160.3708 C.ar    1  UNL1        0.0081
     32 C         139.5201  142.0351  159.2136 C.ar    1  UNL1        0.0491
     33 C         141.5617  144.5650  161.4899 C.3     1  UNL1        0.4186
     34 F         142.3371  145.1215  162.6472 F       1  UNL1       -0.1659
     35 F         140.7842  145.8443  161.3957 F       1  UNL1       -0.1659
     36 F         142.3392  143.2857  161.5842 F       1  UNL1       -0.1659
@<TRIPOS>BOND
     1    19    20    1
     2    20    18    1
     3     7    18    1
     4     7     8    1
     5     8     9    1
     6     9    13    1
     7    13    14    1
     8    13    15    1
     9    15    16    1
    10    15    17    1
    11     9    10    1
    12    10    11    1
    13    11    12    1
    14    12     1    1
    15     1     2    1
    16     2     3    1
    17     3     4    1
    18     4    21    1
    19    21    23    1
    20    23    24   ar
    21    24    25   ar
    22    25    26   ar
    23    26    27   ar
    24    27    28   ar
    25    28    29   ar
    26    29    30   ar
    27    30    33    1
    28    33    34    1
    29    33    35    1
    30    33    36    1
    31    30    31   ar
    32    31    32   ar
    33     4     5    1
    34     5     6    2
    35    12     7    1
    36     5     1   am
    37    32    23   ar
    38    32    27   ar
    39    21    22    1
@<TRIPOS>MOLECULE
*****
 36 39 0 0 0
SMALL
GASTEIGER

@<TRIPOS>ATOM
      1 N         142.1869  139.2136  164.2698 N.am    1  UNL1       -0.2798
      2 C         140.9157  138.6859  163.6734 C.3     1  UNL1        0.0956
      3 C         141.2564  138.0137  162.3764 C.3     1  UNL1        0.0504
      4 C         142.7381  138.1259  162.1713 C.3     1  UNL1        0.1495
      5 C         143.3131  138.8675  163.3415 C.2     1  UNL1        0.2435
      6 O         144.7604  139.2039  163.5472 O.2     1  UNL1       -0.2731
      7 C         142.3282  141.4568  165.5729 C.3     1  UNL1        0.0196
      8 C         142.4515  142.2002  166.8699 C.3     1  UNL1        0.0176
      9 C         142.5568  141.4436  168.1609 C.3     1  UNL1        0.0576
     10 C         142.5388  139.9437  168.1547 C.3     1  UNL1        0.0177
     11 C         142.4155  139.2004  166.8577 C.3     1  UNL1        0.0212
     12 C         142.3102  139.9570  165.5668 C.3     1  UNL1        0.0754
     13 N         142.6801  142.1868  169.4580 N.3     1  UNL1       -0.2741
     14 C         144.0354  142.5469  169.9902 C.3     1  UNL1        0.0896
     15 C         141.4479  142.5699  170.2228 C.3     1  UNL1        0.0576
     16 C         140.6862  143.8063  169.8473 C.3     1  UNL1        0.0173
     17 C         140.9774  141.7166  171.3632 C.3     1  UNL1        0.0173
     18 C         142.2229  142.2134  164.2820 C.3     1  UNL1        0.0017
     19 C         141.8832  144.7695  163.9636 C.3     1  UNL1        0.0000
     20 C         141.3109  143.4000  164.1803 C.3     1  UNL1        0.0001
     21 N         143.5092  137.5905  161.0014 N.pl3   1  UNL1       -0.3122
     22 H         144.1702  136.8730  161.1343 H       1  UNL1        0.1486
     23 C         143.2734  138.1482  159.6290 C.ar    1  UNL1        0.1319
     24 N         142.8853  137.2345  158.5046 N.ar    1  UNL1       -0.2092
     25 C         142.6495  137.7922  157.1323 C.ar    1  UNL1        0.2000
     26 N         142.8016  139.2638  156.8845 N.ar    1  UNL1       -0.2239
     27 C         143.1897  140.1775  158.0089 C.ar    1  UNL1        0.0857
     28 C         143.3418  141.6491  157.7610 C.ar    1  UNL1        0.0192
     29 C         143.7299  142.5629  158.8855 C.ar    1  UNL1        0.0054
     30 C         143.9657  142.0051  160.2579 C.ar    1  UNL1        0.0716
     31 C         143.8136  140.5336  160.5057 C.ar    1  UNL1        0.0081
     32 C         143.4255  139.6198  159.3812 C.ar    1  UNL1        0.0491
     33 C         144.3538  142.9189  161.3823 C.3     1  UNL1        0.4186
     34 F         144.7418  143.8327  162.5068 F       1  UNL1       -0.1659
     35 F         145.4811  141.9972  161.7423 F       1  UNL1       -0.1659
     36 F         143.2264  143.8405  161.0224 F       1  UNL1       -0.1659
@<TRIPOS>BOND
     1    19    20    1
     2    20    18    1
     3     7    18    1
     4     7     8    1
     5     8     9    1
     6     9    13    1
     7    13    14    1
     8    13    15    1
     9    15    16    1
    10    15    17    1
    11     9    10    1
    12    10    11    1
    13    11    12    1
    14    12     1    1
    15     1     2    1
    16     2     3    1
    17     3     4    1
    18     4    21    1
    19    21    23    1
    20    23    24   ar
    21    24    25   ar
    22    25    26   ar
    23    26    27   ar
    24    27    28   ar
    25    28    29   ar
    26    29    30   ar
    27    30    33    1
    28    33    34    1
    29    33    35    1
    30    33    36    1
    31    30    31   ar
    32    31    32   ar
    33     4     5    1
    34     5     6    2
    35    12     7    1
    36     5     1   am
    37    32    23   ar
    38    32    27   ar
    39    21    22    1
@<TRIPOS>MOLECULE
*****
 36 39 0 0 0
SMALL
GASTEIGER

@<TRIPOS>ATOM
      1 N         142.8806  143.4193  163.5406 N.am    1  UNL1       -0.2798
      2 C         143.9793  144.1939  164.2060 C.3     1  UNL1        0.0956
      3 C         144.3128  143.5086  165.4979 C.3     1  UNL1        0.0504
      4 C         143.4202  142.3105  165.6311 C.3     1  UNL1        0.1495
      5 C         142.5351  142.2553  164.4213 C.2     1  UNL1        0.2435
      6 O         141.4882  141.2181  164.1415 O.2     1  UNL1       -0.2731
      7 C         142.7638  143.1377  160.9604 C.3     1  UNL1        0.0196
      8 C         142.1231  143.4689  159.6452 C.3     1  UNL1        0.0176
      9 C         140.9585  144.4128  159.5949 C.3     1  UNL1        0.0576
     10 C         140.4346  145.0256  160.8598 C.3     1  UNL1        0.0177
     11 C         141.0753  144.6944  162.1751 C.3     1  UNL1        0.0212
     12 C         142.2399  143.7504  162.2253 C.3     1  UNL1        0.0754
     13 N         140.3177  144.7441  158.2797 N.3     1  UNL1       -0.2741
     14 C         140.2010  146.1738  157.8412 C.3     1  UNL1        0.0896
     15 C         139.7935  143.6455  157.4031 C.3     1  UNL1        0.0576
     16 C         140.4172  143.3938  156.0623 C.3     1  UNL1        0.0173
     17 C         138.6458  142.7987  157.8672 C.3     1  UNL1        0.0173
     18 C         143.9285  142.1937  161.0107 C.3     1  UNL1        0.0017
     19 C         144.4639  140.0054  162.3047 C.3     1  UNL1        0.0000
     20 C         143.6975  140.7290  161.2375 C.3     1  UNL1        0.0001
     21 N         143.4139  141.3383  166.7733 N.pl3   1  UNL1       -0.3122
     22 H         143.7969  140.4389  166.6564 H       1  UNL1        0.1486
     23 C         142.8239  141.7364  168.0938 C.ar    1  UNL1        0.1319
     24 N         143.5980  142.6218  169.0247 N.ar    1  UNL1       -0.2092
     25 C         143.0079  143.0199  170.3451 C.ar    1  UNL1        0.2000
     26 N         141.6438  142.5325  170.7345 N.ar    1  UNL1       -0.2239
     27 C         140.8697  141.6471  169.8035 C.ar    1  UNL1        0.0857
     28 C         139.5056  141.1597  170.1929 C.ar    1  UNL1        0.0192
     29 C         138.7315  140.2743  169.2619 C.ar    1  UNL1        0.0054
     30 C         139.3215  139.8762  167.9415 C.ar    1  UNL1        0.0716
     31 C         140.6856  140.3635  167.5521 C.ar    1  UNL1        0.0081
     32 C         141.4597  141.2490  168.4832 C.ar    1  UNL1        0.0491
     33 C         138.5474  138.9907  167.0105 C.3     1  UNL1        0.4186
     34 F         137.7732  138.1053  166.0796 F       1  UNL1       -0.1659
     35 F         139.6051  139.1686  165.9619 F       1  UNL1       -0.1659
     36 F         137.4897  138.8129  168.0591 F       1  UNL1       -0.1659
@<TRIPOS>BOND
     1    19    20    1
     2    20    18    1
     3     7    18    1
     4     7     8    1
     5     8     9    1
     6     9    13    1
     7    13    14    1
     8    13    15    1
     9    15    16    1
    10    15    17    1
    11     9    10    1
    12    10    11    1
    13    11    12    1
    14    12     1    1
    15     1     2    1
    16     2     3    1
    17     3     4    1
    18     4    21    1
    19    21    23    1
    20    23    24   ar
    21    24    25   ar
    22    25    26   ar
    23    26    27   ar
    24    27    28   ar
    25    28    29   ar
    26    29    30   ar
    27    30    33    1
    28    33    34    1
    29    33    35    1
    30    33    36    1
    31    30    31   ar
    32    31    32   ar
    33     4     5    1
    34     5     6    2
    35    12     7    1
    36     5     1   am
    37    32    23   ar
    38    32    27   ar
    39    21    22    1
@<TRIPOS>MOLECULE
*****
 36 39 0 0 0
SMALL
GASTEIGER

@<TRIPOS>ATOM
      1 N         139.8326  143.3122  158.1593 N.am    1  UNL1       -0.2798
      2 C         141.0974  143.7279  157.4682 C.3     1  UNL1        0.0956
      3 C         141.9409  144.4772  158.4567 C.3     1  UNL1        0.0504
      4 C         141.1976  144.5246  159.7586 C.3     1  UNL1        0.1495
      5 C         139.8946  143.8046  159.5748 C.2     1  UNL1        0.2435
      6 O         138.8388  143.6110  160.6226 O.2     1  UNL1       -0.2731
      7 C         138.5160  141.0900  157.8790 C.3     1  UNL1        0.0196
      8 C         137.3875  140.3176  157.2628 C.3     1  UNL1        0.0176
      9 C         136.4470  140.9949  156.3106 C.3     1  UNL1        0.0576
     10 C         136.6351  142.4447  155.9746 C.3     1  UNL1        0.0177
     11 C         137.7636  143.2171  156.5908 C.3     1  UNL1        0.0212
     12 C         138.7041  142.5398  157.5430 C.3     1  UNL1        0.0754
     13 N         135.3184  140.2226  155.6942 N.3     1  UNL1       -0.2741
     14 C         135.5672  139.3627  154.4907 C.3     1  UNL1        0.0896
     15 C         133.9410  140.3103  156.2816 C.3     1  UNL1        0.0576
     16 C         132.9075  141.1893  155.6419 C.3     1  UNL1        0.0173
     17 C         133.5971  139.5190  157.5086 C.3     1  UNL1        0.0173
     18 C         139.4565  140.4127  158.8312 C.3     1  UNL1        0.0017
     19 C         137.8270  140.2775  160.8503 C.3     1  UNL1        0.0000
     20 C         138.9168  139.6701  160.0175 C.3     1  UNL1        0.0001
     21 N         141.6736  145.1773  161.0225 N.pl3   1  UNL1       -0.3122
     22 H         141.4946  146.1324  161.1809 H       1  UNL1        0.1486
     23 C         142.4224  144.3749  162.0450 C.ar    1  UNL1        0.1319
     24 N         143.8421  143.9664  161.7850 N.ar    1  UNL1       -0.2092
     25 C         144.5908  143.1641  162.8076 C.ar    1  UNL1        0.2000
     26 N         143.9199  142.7702  164.0900 N.ar    1  UNL1       -0.2239
     27 C         142.5002  143.1787  164.3500 C.ar    1  UNL1        0.0857
     28 C         141.8293  142.7849  165.6325 C.ar    1  UNL1        0.0192
     29 C         140.4096  143.1934  165.8924 C.ar    1  UNL1        0.0054
     30 C         139.6608  143.9958  164.8699 C.ar    1  UNL1        0.0716
     31 C         140.3317  144.3896  163.5874 C.ar    1  UNL1        0.0081
     32 C         141.7515  143.9811  163.3275 C.ar    1  UNL1        0.0491
     33 C         138.2411  144.4043  165.1299 C.3     1  UNL1        0.4186
     34 F         136.8214  144.8128  165.3899 F       1  UNL1       -0.1659
     35 F         137.7651  143.3740  164.1492 F       1  UNL1       -0.1659
     36 F         138.7172  145.4346  166.1106 F       1  UNL1       -0.1659
@<TRIPOS>BOND
     1    19    20    1
     2    20    18    1
     3     7    18    1
     4     7     8    1
     5     8     9    1
     6     9    13    1
     7    13    14    1
     8    13    15    1
     9    15    16    1
    10    15    17    1
    11     9    10    1
    12    10    11    1
    13    11    12    1
    14    12     1    1
    15     1     2    1
    16     2     3    1
    17     3     4    1
    18     4    21    1
    19    21    23    1
    20    23    24   ar
    21    24    25   ar
    22    25    26   ar
    23    26    27   ar
    24    27    28   ar
    25    28    29   ar
    26    29    30   ar
    27    30    33    1
    28    33    34    1
    29    33    35    1
    30    33    36    1
    31    30    31   ar
    32    31    32   ar
    33     4     5    1
    34     5     6    2
    35    12     7    1
    36     5     1   am
    37    32    23   ar
    38    32    27   ar
    39    21    22    1
@<TRIPOS>MOLECULE
*****
 36 39 0 0 0
SMALL
GASTEIGER

@<TRIPOS>ATOM
      1 N         138.7756  139.4029  163.4160 N.am    1  UNL1       -0.2798
      2 C         139.4481  138.3469  162.5899 C.3     1  UNL1        0.0956
      3 C         139.0294  138.5386  161.1624 C.3     1  UNL1        0.0504
      4 C         138.0980  139.7131  161.1062 C.3     1  UNL1        0.1495
      5 C         137.9411  140.2472  162.4990 C.2     1  UNL1        0.2435
      6 O         137.0979  141.4199  162.9038 O.2     1  UNL1       -0.2731
      7 C         139.7763  140.6821  165.4439 C.3     1  UNL1        0.0196
      8 C         139.9140  140.8622  166.9267 C.3     1  UNL1        0.0176
      9 C         139.1886  139.9433  167.8643 C.3     1  UNL1        0.0576
     10 C         138.3255  138.8442  167.3192 C.3     1  UNL1        0.0177
     11 C         138.1878  138.6641  165.8364 C.3     1  UNL1        0.0212
     12 C         138.9132  139.5830  164.8988 C.3     1  UNL1        0.0754
     13 N         139.3261  140.1233  169.3471 N.3     1  UNL1       -0.2741
     14 C         138.1180  140.0218  170.2303 C.3     1  UNL1        0.0896
     15 C         140.6720  140.4048  169.9467 C.3     1  UNL1        0.0576
     16 C         140.8987  141.6696  170.7204 C.3     1  UNL1        0.0173
     17 C         141.7912  139.4214  169.7725 C.3     1  UNL1        0.0173
     18 C         140.5018  141.6011  164.5063 C.3     1  UNL1        0.0017
     19 C         139.1411  143.7604  164.9920 C.3     1  UNL1        0.0000
     20 C         140.4529  143.0846  164.7226 C.3     1  UNL1        0.0001
     21 N         137.4391  140.2577  159.8736 N.pl3   1  UNL1       -0.3122
     22 H         136.4611  140.3668  159.8455 H       1  UNL1        0.1486
     23 C         138.2705  140.6361  158.6837 C.ar    1  UNL1        0.1319
     24 N         138.2650  139.7700  157.4590 N.ar    1  UNL1       -0.2092
     25 C         139.0964  140.1484  156.2692 C.ar    1  UNL1        0.2000
     26 N         139.9331  141.3928  156.3041 N.ar    1  UNL1       -0.2239
     27 C         139.9386  142.2589  157.5288 C.ar    1  UNL1        0.0857
     28 C         140.7754  143.5033  157.5636 C.ar    1  UNL1        0.0192
     29 C         140.7808  144.3693  158.7883 C.ar    1  UNL1        0.0054
     30 C         139.9495  143.9909  159.9782 C.ar    1  UNL1        0.0716
     31 C         139.1127  142.7465  159.9433 C.ar    1  UNL1        0.0081
     32 C         139.1073  141.8805  158.7186 C.ar    1  UNL1        0.0491
     33 C         139.9549  144.8570  161.2029 C.3     1  UNL1        0.4186
     34 F         139.9604  145.7231  162.4276 F       1  UNL1       -0.1659
     35 F         138.8462  144.0345  161.7895 F       1  UNL1       -0.1659
     36 F         141.0637  145.6795  160.6163 F       1  UNL1       -0.1659
@<TRIPOS>BOND
     1    19    20    1
     2    20    18    1
     3     7    18    1
     4     7     8    1
     5     8     9    1
     6     9    13    1
     7    13    14    1
     8    13    15    1
     9    15    16    1
    10    15    17    1
    11     9    10    1
    12    10    11    1
    13    11    12    1
    14    12     1    1
    15     1     2    1
    16     2     3    1
    17     3     4    1
    18     4    21    1
    19    21    23    1
    20    23    24   ar
    21    24    25   ar
    22    25    26   ar
    23    26    27   ar
    24    27    28   ar
    25    28    29   ar
    26    29    30   ar
    27    30    33    1
    28    33    34    1
    29    33    35    1
    30    33    36    1
    31    30    31   ar
    32    31    32   ar
    33     4     5    1
    34     5     6    2
    35    12     7    1
    36     5     1   am
    37    32    23   ar
    38    32    27   ar
    39    21    22    1
@<TRIPOS>MOLECULE
*****
 36 39 0 0 0
SMALL
GASTEIGER

@<TRIPOS>ATOM
      1 N         139.5938  139.5207  159.3883 N.am    1  UNL1       -0.2798
      2 C         139.2002  140.9040  158.9624 C.3     1  UNL1        0.0956
      3 C         138.2993  141.4750  160.0170 C.3     1  UNL1        0.0504
      4 C         138.1360  140.4446  161.0948 C.3     1  UNL1        0.1495
      5 C         138.9361  139.2368  160.7062 C.2     1  UNL1        0.2435
      6 O         139.0572  137.9677  161.4967 O.2     1  UNL1       -0.2731
      7 C         141.8634  138.2799  159.1445 C.3     1  UNL1        0.0196
      8 C         142.7577  137.3447  158.3858 C.3     1  UNL1        0.0176
      9 C         142.2766  136.7150  157.1122 C.3     1  UNL1        0.0576
     10 C         140.9012  137.0205  156.5974 C.3     1  UNL1        0.0177
     11 C         140.0070  137.9557  157.3561 C.3     1  UNL1        0.0212
     12 C         140.4881  138.5854  158.6296 C.3     1  UNL1        0.0754
     13 N         143.1708  135.7797  156.3534 N.3     1  UNL1       -0.2741
     14 C         144.1951  136.3265  155.4039 C.3     1  UNL1        0.0896
     15 C         143.0405  134.2976  156.5443 C.3     1  UNL1        0.0576
     16 C         142.0430  133.5221  155.7359 C.3     1  UNL1        0.0173
     17 C         143.9078  133.5910  157.5435 C.3     1  UNL1        0.0173
     18 C         142.3445  138.9096  160.4181 C.3     1  UNL1        0.0017
     19 C         144.0015  138.8511  162.4183 C.3     1  UNL1        0.0000
     20 C         143.2290  138.1355  161.3500 C.3     1  UNL1        0.0001
     21 N         137.3166  140.5955  162.3421 N.pl3   1  UNL1       -0.3122
     22 H         136.3379  140.6829  162.2805 H       1  UNL1        0.1486
     23 C         137.9884  140.6134  163.6832 C.ar    1  UNL1        0.1319
     24 N         137.9202  139.4073  164.5723 N.ar    1  UNL1       -0.2092
     25 C         138.5919  139.4252  165.9133 C.ar    1  UNL1        0.2000
     26 N         139.3319  140.6492  166.3652 N.ar    1  UNL1       -0.2239
     27 C         139.4001  141.8554  165.4761 C.ar    1  UNL1        0.0857
     28 C         140.1400  143.0794  165.9280 C.ar    1  UNL1        0.0192
     29 C         140.2082  144.2855  165.0389 C.ar    1  UNL1        0.0054
     30 C         139.5364  144.2676  163.6978 C.ar    1  UNL1        0.0716
     31 C         138.7965  143.0436  163.2459 C.ar    1  UNL1        0.0081
     32 C         138.7283  141.8374  164.1351 C.ar    1  UNL1        0.0491
     33 C         139.6046  145.4738  162.8087 C.3     1  UNL1        0.4186
     34 F         139.6729  146.6800  161.9195 F       1  UNL1       -0.1659
     35 F         138.1551  145.3013  162.4636 F       1  UNL1       -0.1659
     36 F         141.0541  145.6462  163.1538 F       1  UNL1       -0.1659
@<TRIPOS>BOND
     1    19    20    1
     2    20    18    1
     3     7    18    1
     4     7     8    1
     5     8     9    1
     6     9    13    1
     7    13    14    1
     8    13    15    1
     9    15    16    1
    10    15    17    1
    11     9    10    1
    12    10    11    1
    13    11    12    1
    14    12     1    1
    15     1     2    1
    16     2     3    1
    17     3     4    1
    18     4    21    1
    19    21    23    1
    20    23    24   ar
    21    24    25   ar
    22    25    26   ar
    23    26    27   ar
    24    27    28   ar
    25    28    29   ar
    26    29    30   ar
    27    30    33    1
    28    33    34    1
    29    33    35    1
    30    33    36    1
    31    30    31   ar
    32    31    32   ar
    33     4     5    1
    34     5     6    2
    35    12     7    1
    36     5     1   am
    37    32    23   ar
    38    32    27   ar
    39    21    22    1
