@<TRIPOS>MOLECULE
*****
 20 20 0 0 0
SMALL
GASTEIGER

@<TRIPOS>ATOM
      1 N         139.5209  138.6379  165.1457 N.3     1  UNL1       -0.2690
      2 C         138.4723  137.7648  165.7686 C.3     1  UNL1        0.0724
      3 C         137.6530  138.2784  166.9154 C.3     1  UNL1        0.0188
      4 C         139.1417  139.9688  164.5670 C.3     1  UNL1        0.0724
      5 C         139.0558  141.1753  165.4541 C.3     1  UNL1        0.0173
      6 C         140.0054  142.3198  165.2577 C.3     1  UNL1        0.0014
      7 C         139.7841  143.6116  165.9871 C.3     1  UNL1        0.0000
      8 C         138.8813  144.6576  165.4032 C.3     1  UNL1        0.0000
      9 C         138.5845  144.7685  162.8244 C.3     1  UNL1        0.0000
     10 C         138.0777  144.3531  164.1738 C.3     1  UNL1        0.0000
     11 C         140.9486  138.1801  165.1014 C.3     1  UNL1        0.0986
     12 C         142.0342  139.1447  164.7261 C.2     1  UNL1       -0.0130
     13 C         142.8500  139.8089  165.7953 C.2     1  UNL1       -0.0246
     14 C         142.5802  139.5085  167.2399 C.3     1  UNL1        0.0520
     15 C         141.7530  140.4530  168.0606 C.ar    1  UNL1       -0.0178
     16 C         140.4215  140.0145  168.5942 C.ar    1  UNL1       -0.0039
     17 C         139.5943  140.9590  169.4149 C.ar    1  UNL1       -0.0003
     18 C         140.0986  142.3422  169.7020 C.ar    1  UNL1       -0.0000
     19 C         141.4301  142.7808  169.1684 C.ar    1  UNL1       -0.0003
     20 C         142.2573  141.8362  168.3477 C.ar    1  UNL1       -0.0039
@<TRIPOS>BOND
     1     9    10    1
     2    10     8    1
     3     8     7    1
     4     7     6    1
     5     6     5    1
     6     5     4    1
     7     4     1    1
     8     1     2    1
     9     2     3    1
    10     1    11    1
    11    11    12    1
    12    12    13    2
    13    13    14    1
    14    14    15    1
    15    15    16   ar
    16    16    17   ar
    17    17    18   ar
    18    18    19   ar
    19    19    20   ar
    20    20    15   ar
@<TRIPOS>MOLECULE
*****
 20 20 0 0 0
SMALL
GASTEIGER

@<TRIPOS>ATOM
      1 N         137.8271  142.8028  162.5715 N.3     1  UNL1       -0.2690
      2 C         138.4338  142.6966  161.2038 C.3     1  UNL1        0.0724
      3 C         139.9102  142.8882  161.0213 C.3     1  UNL1        0.0188
      4 C         137.6795  144.1451  163.2243 C.3     1  UNL1        0.0724
      5 C         137.7633  144.2664  164.7171 C.3     1  UNL1        0.0173
      6 C         139.0873  144.5169  165.3761 C.3     1  UNL1        0.0014
      7 C         140.0008  143.3679  165.6847 C.3     1  UNL1        0.0000
      8 C         140.9112  142.8272  164.6222 C.3     1  UNL1        0.0000
      9 C         143.3512  143.7175  164.5612 C.3     1  UNL1        0.0000
     10 C         142.3708  142.6373  164.9107 C.3     1  UNL1        0.0000
     11 C         137.3680  141.5665  163.2863 C.3     1  UNL1        0.0986
     12 C         137.9687  140.2354  162.9440 C.2     1  UNL1       -0.0130
     13 C         138.4999  139.3501  164.0321 C.2     1  UNL1       -0.0246
     14 C         138.4305  139.7960  165.4626 C.3     1  UNL1        0.0520
     15 C         139.6621  139.7653  166.3184 C.ar    1  UNL1       -0.0178
     16 C         140.9668  139.3052  165.7389 C.ar    1  UNL1       -0.0039
     17 C         142.1983  139.2745  166.5946 C.ar    1  UNL1       -0.0003
     18 C         142.1252  139.7041  168.0299 C.ar    1  UNL1       -0.0000
     19 C         140.8204  140.1643  168.6094 C.ar    1  UNL1       -0.0003
     20 C         139.5889  140.1949  167.7536 C.ar    1  UNL1       -0.0039
@<TRIPOS>BOND
     1     9    10    1
     2    10     8    1
     3     8     7    1
     4     7     6    1
     5     6     5    1
     6     5     4    1
     7     4     1    1
     8     1     2    1
     9     2     3    1
    10     1    11    1
    11    11    12    1
    12    12    13    2
    13    13    14    1
    14    14    15    1
    15    15    16   ar
    16    16    17   ar
    17    17    18   ar
    18    18    19   ar
    19    19    20   ar
    20    20    15   ar
@<TRIPOS>MOLECULE
*****
 20 20 0 0 0
SMALL
GASTEIGER

@<TRIPOS>ATOM
      1 N         139.3829  144.7229  163.5127 N.3     1  UNL1       -0.2690
      2 C         140.4439  145.3844  162.6841 C.3     1  UNL1        0.0724
      3 C         141.8849  145.0150  162.8768 C.3     1  UNL1        0.0188
      4 C         139.5613  144.5947  164.9965 C.3     1  UNL1        0.0724
      5 C         139.5764  143.2377  165.6356 C.3     1  UNL1        0.0173
      6 C         140.8389  142.4277  165.6463 C.3     1  UNL1        0.0014
      7 C         141.2293  141.6313  164.4366 C.3     1  UNL1        0.0000
      8 C         142.4050  140.7019  164.4979 C.3     1  UNL1        0.0000
      9 C         142.5219  139.2199  166.6287 C.3     1  UNL1        0.0000
     10 C         142.2679  139.3615  165.1571 C.3     1  UNL1        0.0000
     11 C         138.1434  144.1897  162.8575 C.3     1  UNL1        0.0986
     12 C         138.2528  143.1657  161.7669 C.2     1  UNL1       -0.0130
     13 C         137.9295  141.7289  162.0520 C.2     1  UNL1       -0.0246
     14 C         137.4968  141.3162  163.4276 C.3     1  UNL1        0.0520
     15 C         138.0497  140.0655  164.0441 C.ar    1  UNL1       -0.0178
     16 C         138.5822  138.9700  163.1687 C.ar    1  UNL1       -0.0039
     17 C         139.1351  137.7192  163.7852 C.ar    1  UNL1       -0.0003
     18 C         139.1555  137.5640  165.2770 C.ar    1  UNL1       -0.0000
     19 C         138.6230  138.6596  166.1523 C.ar    1  UNL1       -0.0003
     20 C         138.0701  139.9103  165.5358 C.ar    1  UNL1       -0.0039
@<TRIPOS>BOND
     1     9    10    1
     2    10     8    1
     3     8     7    1
     4     7     6    1
     5     6     5    1
     6     5     4    1
     7     4     1    1
     8     1     2    1
     9     2     3    1
    10     1    11    1
    11    11    12    1
    12    12    13    2
    13    13    14    1
    14    14    15    1
    15    15    16   ar
    16    16    17   ar
    17    17    18   ar
    18    18    19   ar
    19    19    20   ar
    20    20    15   ar
@<TRIPOS>MOLECULE
*****
 20 20 0 0 0
SMALL
GASTEIGER

@<TRIPOS>ATOM
      1 N         141.7609  139.3210  163.6812 N.3     1  UNL1       -0.2690
      2 C         141.7400  140.7659  163.2789 C.3     1  UNL1        0.0724
      3 C         140.9361  141.2018  162.0899 C.3     1  UNL1        0.0188
      4 C         143.0700  138.6233  163.9033 C.3     1  UNL1        0.0724
      5 C         143.8854  138.9295  165.1245 C.3     1  UNL1        0.0173
      6 C         143.4793  138.3722  166.4567 C.3     1  UNL1        0.0014
      7 C         142.8645  139.2698  167.4893 C.3     1  UNL1        0.0000
      8 C         142.1773  140.5353  167.0696 C.3     1  UNL1        0.0000
      9 C         143.5062  142.5254  166.0577 C.3     1  UNL1        0.0000
     10 C         142.8685  141.8558  167.2389 C.3     1  UNL1        0.0000
     11 C         140.4728  138.5739  163.8615 C.3     1  UNL1        0.0986
     12 C         139.8546  138.4626  165.2236 C.2     1  UNL1       -0.0130
     13 C         138.6814  139.3236  165.5874 C.2     1  UNL1       -0.0246
     14 C         138.1264  140.2959  164.5892 C.3     1  UNL1        0.0520
     15 C         138.4063  141.7623  164.7349 C.ar    1  UNL1       -0.0178
     16 C         137.6173  142.7592  163.9389 C.ar    1  UNL1       -0.0039
     17 C         137.8972  144.2256  164.0846 C.ar    1  UNL1       -0.0003
     18 C         138.9662  144.6952  165.0263 C.ar    1  UNL1       -0.0000
     19 C         139.7552  143.6983  165.8223 C.ar    1  UNL1       -0.0003
     20 C         139.4753  142.2319  165.6766 C.ar    1  UNL1       -0.0039
@<TRIPOS>BOND
     1     9    10    1
     2    10     8    1
     3     8     7    1
     4     7     6    1
     5     6     5    1
     6     5     4    1
     7     4     1    1
     8     1     2    1
     9     2     3    1
    10     1    11    1
    11    11    12    1
    12    12    13    2
    13    13    14    1
    14    14    15    1
    15    15    16   ar
    16    16    17   ar
    17    17    18   ar
    18    18    19   ar
    19    19    20   ar
    20    20    15   ar
@<TRIPOS>MOLECULE
*****
 20 20 0 0 0
SMALL
GASTEIGER

@<TRIPOS>ATOM
      1 N         138.3962  139.2752  163.5332 N.3     1  UNL1       -0.2690
      2 C         138.1462  140.0576  162.2782 C.3     1  UNL1        0.0724
      3 C         137.6825  141.4817  162.3619 C.3     1  UNL1        0.0188
      4 C         138.9032  137.8660  163.4500 C.3     1  UNL1        0.0724
      5 C         140.3722  137.6053  163.2950 C.3     1  UNL1        0.0173
      6 C         141.1856  137.1701  164.4779 C.3     1  UNL1        0.0014
      7 C         141.8898  138.1918  165.3206 C.3     1  UNL1        0.0000
      8 C         142.9022  139.1077  164.6991 C.3     1  UNL1        0.0000
      9 C         141.5111  141.1606  163.9241 C.3     1  UNL1        0.0000
     10 C         142.6674  140.5892  164.6899 C.3     1  UNL1        0.0000
     11 C         138.1393  139.9020  164.8715 C.3     1  UNL1        0.0986
     12 C         138.1823  139.0623  166.1137 C.2     1  UNL1       -0.0130
     13 C         139.0208  139.4921  167.2808 C.2     1  UNL1       -0.0246
     14 C         139.8163  140.7615  167.2058 C.3     1  UNL1        0.0520
     15 C         141.0169  140.9474  168.0856 C.ar    1  UNL1       -0.0178
     16 C         141.3625  139.9096  169.1120 C.ar    1  UNL1       -0.0039
     17 C         142.5630  140.0955  169.9918 C.ar    1  UNL1       -0.0003
     18 C         143.4180  141.3192  169.8453 C.ar    1  UNL1       -0.0000
     19 C         143.0724  142.3570  168.8189 C.ar    1  UNL1       -0.0003
     20 C         141.8718  142.1711  167.9391 C.ar    1  UNL1       -0.0039
@<TRIPOS>BOND
     1     9    10    1
     2    10     8    1
     3     8     7    1
     4     7     6    1
     5     6     5    1
     6     5     4    1
     7     4     1    1
     8     1     2    1
     9     2     3    1
    10     1    11    1
    11    11    12    1
    12    12    13    2
    13    13    14    1
    14    14    15    1
    15    15    16   ar
    16    16    17   ar
    17    17    18   ar
    18    18    19   ar
    19    19    20   ar
    20    20    15   ar
@<TRIPOS>MOLECULE
*****
 20 20 0 0 0
SMALL
GASTEIGER

@<TRIPOS>ATOM
      1 N         138.4863  140.4657  162.7450 N.3     1  UNL1       -0.2690
      2 C         139.6827  140.8932  161.9476 C.3     1  UNL1        0.0724
      3 C         140.9951  141.1314  162.6336 C.3     1  UNL1        0.0188
      4 C         137.5695  141.4970  163.3330 C.3     1  UNL1        0.0724
      5 C         137.8158  142.9540  163.0749 C.3     1  UNL1        0.0173
      6 C         137.6964  143.9448  164.1948 C.3     1  UNL1        0.0014
      7 C         138.9257  144.6006  164.7502 C.3     1  UNL1        0.0000
      8 C         140.0808  144.9160  163.8467 C.3     1  UNL1        0.0000
      9 C         142.6618  145.1674  163.6868 C.3     1  UNL1        0.0000
     10 C         141.4572  144.4293  164.1913 C.3     1  UNL1        0.0000
     11 C         138.2067  139.0070  162.9543 C.3     1  UNL1        0.0986
     12 C         139.2521  138.1234  163.5678 C.2     1  UNL1       -0.0130
     13 C         139.4433  138.1094  165.0555 C.2     1  UNL1       -0.0246
     14 C         138.5891  138.9789  165.9297 C.3     1  UNL1        0.0520
     15 C         139.2248  140.0228  166.7993 C.ar    1  UNL1       -0.0178
     16 C         139.2154  139.8638  168.2908 C.ar    1  UNL1       -0.0039
     17 C         139.8510  140.9077  169.1604 C.ar    1  UNL1       -0.0003
     18 C         140.4960  142.1107  168.5385 C.ar    1  UNL1       -0.0000
     19 C         140.5053  142.2698  167.0471 C.ar    1  UNL1       -0.0003
     20 C         139.8697  141.2258  166.1775 C.ar    1  UNL1       -0.0039
@<TRIPOS>BOND
     1     9    10    1
     2    10     8    1
     3     8     7    1
     4     7     6    1
     5     6     5    1
     6     5     4    1
     7     4     1    1
     8     1     2    1
     9     2     3    1
    10     1    11    1
    11    11    12    1
    12    12    13    2
    13    13    14    1
    14    14    15    1
    15    15    16   ar
    16    16    17   ar
    17    17    18   ar
    18    18    19   ar
    19    19    20   ar
    20    20    15   ar
@<TRIPOS>MOLECULE
*****
 20 20 0 0 0
SMALL
GASTEIGER

@<TRIPOS>ATOM
      1 N         140.9379  144.1751  163.9372 N.3     1  UNL1       -0.2690
      2 C         141.9213  145.1194  163.3118 C.3     1  UNL1        0.0724
      3 C         143.3926  144.8453  163.4125 C.3     1  UNL1        0.0188
      4 C         141.3551  143.3149  165.0930 C.3     1  UNL1        0.0724
      5 C         141.3596  141.8214  164.9533 C.3     1  UNL1        0.0173
      6 C         141.9131  141.1859  163.7123 C.3     1  UNL1        0.0014
      7 C         142.5018  139.8077  163.7741 C.3     1  UNL1        0.0000
      8 C         143.9907  139.6265  163.7541 C.3     1  UNL1        0.0000
      9 C         145.6625  141.5811  163.3873 C.3     1  UNL1        0.0000
     10 C         144.8837  140.6943  164.3131 C.3     1  UNL1        0.0000
     11 C         139.5373  144.0910  163.4069 C.3     1  UNL1        0.0986
     12 C         138.3824  143.9646  164.3557 C.2     1  UNL1       -0.0130
     13 C         137.5535  142.7145  164.3659 C.2     1  UNL1       -0.0246
     14 C         137.8794  141.5908  163.4273 C.3     1  UNL1        0.0520
     15 C         138.2479  140.2423  163.9711 C.ar    1  UNL1       -0.0178
     16 C         138.7092  139.1592  163.0415 C.ar    1  UNL1       -0.0039
     17 C         139.0777  137.8107  163.5854 C.ar    1  UNL1       -0.0003
     18 C         138.9848  137.5452  165.0587 C.ar    1  UNL1       -0.0000
     19 C         138.5235  138.6283  165.9883 C.ar    1  UNL1       -0.0003
     20 C         138.1550  139.9768  165.4445 C.ar    1  UNL1       -0.0039
@<TRIPOS>BOND
     1     9    10    1
     2    10     8    1
     3     8     7    1
     4     7     6    1
     5     6     5    1
     6     5     4    1
     7     4     1    1
     8     1     2    1
     9     2     3    1
    10     1    11    1
    11    11    12    1
    12    12    13    2
    13    13    14    1
    14    14    15    1
    15    15    16   ar
    16    16    17   ar
    17    17    18   ar
    18    18    19   ar
    19    19    20   ar
    20    20    15   ar
@<TRIPOS>MOLECULE
*****
 20 20 0 0 0
SMALL
GASTEIGER

@<TRIPOS>ATOM
      1 N         140.7205  144.3564  164.3557 N.3     1  UNL1       -0.2690
      2 C         141.7088  145.2094  163.6171 C.3     1  UNL1        0.0724
      3 C         143.1730  145.0968  163.9232 C.3     1  UNL1        0.0188
      4 C         141.1992  143.2065  165.1913 C.3     1  UNL1        0.0724
      5 C         140.4896  142.8594  166.4665 C.3     1  UNL1        0.0173
      6 C         141.2514  142.2537  167.6079 C.3     1  UNL1        0.0014
      7 C         140.8534  140.9118  168.1471 C.3     1  UNL1        0.0000
      8 C         141.8085  139.7580  168.0669 C.3     1  UNL1        0.0000
      9 C         142.3354  138.7686  165.7230 C.3     1  UNL1        0.0000
     10 C         142.7283  139.6262  166.8893 C.3     1  UNL1        0.0000
     11 C         139.2534  144.6534  164.2585 C.3     1  UNL1        0.0986
     12 C         138.4644  144.1593  163.0824 C.2     1  UNL1       -0.0130
     13 C         137.6871  142.8805  163.1846 C.2     1  UNL1       -0.0246
     14 C         137.6988  142.0958  164.4628 C.3     1  UNL1        0.0520
     15 C         138.1130  140.6541  164.4541 C.ar    1  UNL1       -0.0178
     16 C         138.2416  139.9029  165.7460 C.ar    1  UNL1       -0.0039
     17 C         138.6558  138.4612  165.7373 C.ar    1  UNL1       -0.0003
     18 C         138.9414  137.7708  164.4367 C.ar    1  UNL1       -0.0000
     19 C         138.8128  138.5220  163.1448 C.ar    1  UNL1       -0.0003
     20 C         138.3986  139.9637  163.1535 C.ar    1  UNL1       -0.0039
@<TRIPOS>BOND
     1     9    10    1
     2    10     8    1
     3     8     7    1
     4     7     6    1
     5     6     5    1
     6     5     4    1
     7     4     1    1
     8     1     2    1
     9     2     3    1
    10     1    11    1
    11    11    12    1
    12    12    13    2
    13    13    14    1
    14    14    15    1
    15    15    16   ar
    16    16    17   ar
    17    17    18   ar
    18    18    19   ar
    19    19    20   ar
    20    20    15   ar
@<TRIPOS>MOLECULE
*****
 20 20 0 0 0
SMALL
GASTEIGER

@<TRIPOS>ATOM
      1 N         138.5997  139.2538  164.0502 N.3     1  UNL1       -0.2690
      2 C         138.8869  138.5372  162.7642 C.3     1  UNL1        0.0724
      3 C         137.8034  138.3708  161.7402 C.3     1  UNL1        0.0188
      4 C         138.0447  140.6470  164.0247 C.3     1  UNL1        0.0724
      5 C         138.9738  141.8246  164.0183 C.3     1  UNL1        0.0173
      6 C         139.1693  142.6325  165.2670 C.3     1  UNL1        0.0014
      7 C         140.5312  143.1548  165.6169 C.3     1  UNL1        0.0000
      8 C         141.7561  142.4680  165.0896 C.3     1  UNL1        0.0000
      9 C         144.1487  143.2614  165.7189 C.3     1  UNL1        0.0000
     10 C         142.9854  143.2665  164.7717 C.3     1  UNL1        0.0000
     11 C         138.8677  138.5771  165.3618 C.3     1  UNL1        0.0986
     12 C         138.1531  139.0315  166.5999 C.2     1  UNL1       -0.0130
     13 C         138.9210  139.6785  167.7143 C.2     1  UNL1       -0.0246
     14 C         140.4034  139.8712  167.5905 C.3     1  UNL1        0.0520
     15 C         141.0892  140.9432  168.3845 C.ar    1  UNL1       -0.0178
     16 C         142.5874  141.0097  168.4175 C.ar    1  UNL1       -0.0039
     17 C         143.2733  142.0816  169.2115 C.ar    1  UNL1       -0.0003
     18 C         142.4610  143.0870  169.9727 C.ar    1  UNL1       -0.0000
     19 C         140.9629  143.0205  169.9397 C.ar    1  UNL1       -0.0003
     20 C         140.2770  141.9486  169.1456 C.ar    1  UNL1       -0.0039
@<TRIPOS>BOND
     1     9    10    1
     2    10     8    1
     3     8     7    1
     4     7     6    1
     5     6     5    1
     6     5     4    1
     7     4     1    1
     8     1     2    1
     9     2     3    1
    10     1    11    1
    11    11    12    1
    12    12    13    2
    13    13    14    1
    14    14    15    1
    15    15    16   ar
    16    16    17   ar
    17    17    18   ar
    18    18    19   ar
    19    19    20   ar
    20    20    15   ar
