@<TRIPOS>MOLECULE
*****
 51 57 0 0 0
SMALL
GASTEIGER

@<TRIPOS>ATOM
      1 C         141.7340  143.6328  160.7054 C.2     1  UNL1        0.2499
      2 O         141.7912  145.1211  160.5276 O.2     1  UNL1       -0.2699
      3 N         141.6929  143.0432  162.0841 N.am    1  UNL1       -0.2760
      4 C         141.7090  143.9419  163.2850 C.3     1  UNL1        0.0940
      5 C         141.6680  143.3523  164.6636 C.3     1  UNL1        0.0257
      6 C         141.6108  141.8640  164.8414 C.3     1  UNL1        0.0236
      7 C         141.5946  140.9653  163.6406 C.3     1  UNL1        0.0257
      8 C         141.6357  141.5549  162.2619 C.3     1  UNL1        0.0940
      9 C         142.9907  141.3229  157.7331 C.ar    1  UNL1        0.1494
     10 C         143.0069  142.2216  158.9339 C.ar    1  UNL1        0.0276
     11 C         141.7179  142.7340  159.5046 C.ar    1  UNL1        0.0656
     12 C         140.4126  142.3477  158.8746 C.ar    1  UNL1        0.0643
     13 CL        139.1235  142.8601  159.4453 Cl      1  UNL1       -0.0820
     14 C         140.3964  141.4489  157.6737 C.ar    1  UNL1        0.0426
     15 C         141.6854  140.9365  157.1030 C.ar    1  UNL1        0.1594
     16 F         141.6693  140.0377  155.9022 F       1  UNL1       -0.2027
     17 S         144.2798  140.8105  157.1623 S.O2    1  UNL1        0.0624
     18 O         144.4060  139.8513  158.3086 O.2     1  UNL1       -0.1529
     19 O         144.1535  141.7697  156.0160 O.2     1  UNL1       -0.1529
     20 N         145.5689  140.2980  156.5916 N.3     1  UNL1       -0.1793
     21 H         146.2306  140.2388  157.3656 H       1  UNL1        0.1488
     22 C         146.2550  141.0532  155.4921 C.3     1  UNL1        0.0915
     23 C         148.3155  142.4041  154.6680 C.3     1  UNL1        0.0015
     24 C         147.4800  141.8656  155.7913 C.3     1  UNL1        0.0188
     25 C         141.6065  142.2982  166.2772 C.ar    1  UNL1       -0.0204
     26 C         140.3655  142.8881  166.8787 C.ar    1  UNL1       -0.0041
     27 C         140.3612  143.3224  168.3145 C.ar    1  UNL1        0.0020
     28 C         141.5981  143.1667  169.1487 C.ar    1  UNL1        0.0296
     29 C         142.8392  142.5768  168.5472 C.ar    1  UNL1        0.1398
     30 F         144.0759  142.4211  169.3815 F       1  UNL1       -0.2042
     31 C         142.8433  142.1425  167.1114 C.ar    1  UNL1        0.0254
     32 C         141.5521  140.5265  165.5178 C.3     1  UNL1        0.0215
     33 C         140.3141  139.6861  165.4120 C.3     1  UNL1        0.0723
     34 N         139.2775  140.0050  164.3759 N.3     1  UNL1       -0.2751
     35 C         138.2385  141.0828  164.4706 C.3     1  UNL1        0.0594
     36 C         137.4166  141.0460  163.2163 C.3     1  UNL1        0.0174
     37 C         137.9476  139.9454  162.3464 C.3     1  UNL1        0.0174
     38 C         139.0977  139.3020  163.0630 C.3     1  UNL1        0.0594
     39 C         140.1949  138.8577  164.0000 C.3     1  UNL1        0.0386
     40 C         140.2534  139.6513  165.2714 C.3     1  UNL1        0.0893
     41 C         139.2752  140.7639  165.5068 C.3     1  UNL1        0.0386
     42 N         141.2901  139.3324  166.3076 N.ar    1  UNL1       -0.3167
     43 C         142.6626  138.7880  166.0433 C.ar    1  UNL1        0.1207
     44 C         142.9131  138.5829  164.5787 C.3     1  UNL1        0.0718
     45 N         143.3569  138.6211  167.3624 N.ar    1  UNL1       -0.2309
     46 C         142.4136  139.0624  168.4419 C.ar    1  UNL1        0.0983
     47 C         142.5528  139.1207  169.9343 C.ar    1  UNL1        0.0206
     48 C         141.4145  139.6186  170.7748 C.ar    1  UNL1        0.0016
     49 C         140.1371  140.0582  170.1229 C.ar    1  UNL1        0.0016
     50 C         139.9979  139.9999  168.6305 C.ar    1  UNL1        0.0188
     51 C         141.1362  139.5020  167.7900 C.ar    1  UNL1        0.0785
@<TRIPOS>BOND
     1    23    24    1
     2    24    22    1
     3    22    20    1
     4    20    17    1
     5    17    18    2
     6    17    19    2
     7    17     9    1
     8     9    10   ar
     9    10    11   ar
    10    11     1    1
    11     1     2    2
    12     1     3   am
    13     3     4    1
    14     4     5    1
    15     5     6    1
    16     6    32    1
    17    32    33    1
    18    33    34    1
    19    34    35    1
    20    35    36    1
    21    36    37    1
    22    37    38    1
    23    38    39    1
    24    39    40    1
    25    40    42    1
    26    42    43   ar
    27    43    44    1
    28    43    45   ar
    29    45    46   ar
    30    46    47   ar
    31    47    48   ar
    32    48    49   ar
    33    49    50   ar
    34    50    51   ar
    35    40    41    1
    36     6    25    1
    37    25    26   ar
    38    26    27   ar
    39    27    28   ar
    40    28    29   ar
    41    29    30    1
    42    29    31   ar
    43     6     7    1
    44     7     8    1
    45    11    12   ar
    46    12    13    1
    47    12    14   ar
    48    14    15   ar
    49    15    16    1
    50    15     9   ar
    51     8     3    1
    52    38    34    1
    53    51    42   ar
    54    31    25   ar
    55    41    35    1
    56    51    46   ar
    57    20    21    1
@<TRIPOS>MOLECULE
*****
 51 57 0 0 0
SMALL
GASTEIGER

@<TRIPOS>ATOM
      1 C         139.0266  140.0102  157.6587 C.2     1  UNL1        0.2499
      2 O         137.5562  139.9007  157.3836 O.2     1  UNL1       -0.2699
      3 N         139.5090  140.7294  158.8835 N.am    1  UNL1       -0.2760
      4 C         138.5210  141.3392  159.8331 C.3     1  UNL1        0.0940
      5 C         139.0033  142.0584  161.0578 C.3     1  UNL1        0.0257
      6 C         140.4738  142.1679  161.3330 C.3     1  UNL1        0.0236
      7 C         141.4619  141.5580  160.3834 C.3     1  UNL1        0.0257
      8 C         140.9795  140.8388  159.1586 C.3     1  UNL1        0.0940
      9 C         141.4251  137.3616  155.9317 C.ar    1  UNL1        0.1494
     10 C         140.4370  137.9713  156.8813 C.ar    1  UNL1        0.0276
     11 C         140.0148  139.4004  156.7092 C.ar    1  UNL1        0.0656
     12 C         140.5808  140.2197  155.5874 C.ar    1  UNL1        0.0643
     13 CL        140.1586  141.6487  155.4152 Cl      1  UNL1       -0.0820
     14 C         141.5689  139.6100  154.6377 C.ar    1  UNL1        0.0426
     15 C         141.9911  138.1810  154.8099 C.ar    1  UNL1        0.1594
     16 F         142.9792  137.5712  153.8603 F       1  UNL1       -0.2027
     17 S         141.8473  135.9326  156.1039 S.O2    1  UNL1        0.0624
     18 O         140.8106  135.5063  155.1071 O.2     1  UNL1       -0.1529
     19 O         142.8840  136.3590  157.1006 O.2     1  UNL1       -0.1529
     20 N         142.2694  134.5035  156.2760 N.3     1  UNL1       -0.1793
     21 H         141.4481  133.9903  156.5959 H       1  UNL1        0.1488
     22 C         143.3877  134.1597  157.2148 C.3     1  UNL1        0.0915
     23 C         145.2154  132.4880  157.9989 C.3     1  UNL1        0.0015
     24 C         143.9730  132.7787  157.2102 C.3     1  UNL1        0.0188
     25 C         139.9309  142.9045  162.5216 C.ar    1  UNL1       -0.0204
     26 C         139.2479  144.2271  162.3364 C.ar    1  UNL1       -0.0041
     27 C         138.7050  144.9638  163.5249 C.ar    1  UNL1        0.0020
     28 C         138.8451  144.3778  164.8986 C.ar    1  UNL1        0.0296
     29 C         139.5281  143.0552  165.0838 C.ar    1  UNL1        0.1398
     30 F         139.6681  142.4693  166.4574 F       1  UNL1       -0.2042
     31 C         140.0710  142.3186  163.8952 C.ar    1  UNL1        0.0254
     32 C         141.7557  142.5331  162.0209 C.3     1  UNL1        0.0215
     33 C         142.6567  143.5738  161.4248 C.3     1  UNL1        0.0723
     34 N         142.3801  144.1071  160.0505 N.3     1  UNL1       -0.2751
     35 C         141.3776  145.1669  159.7012 C.3     1  UNL1        0.0594
     36 C         141.4353  145.3891  158.2189 C.3     1  UNL1        0.0174
     37 C         142.4736  144.4668  157.6520 C.3     1  UNL1        0.0174
     38 C         143.0575  143.6745  158.7839 C.3     1  UNL1        0.0594
     39 C         143.4524  143.0360  160.0937 C.3     1  UNL1        0.0386
     40 C         142.6917  143.5680  161.2719 C.3     1  UNL1        0.0893
     41 C         141.6542  144.6335  161.0756 C.3     1  UNL1        0.0386
     42 N         142.9683  143.0346  162.6463 N.ar    1  UNL1       -0.3167
     43 C         142.8885  143.8124  163.9264 C.ar    1  UNL1        0.1207
     44 C         142.4878  145.2389  163.6930 C.3     1  UNL1        0.0718
     45 N         143.2441  142.8883  165.0531 N.ar    1  UNL1       -0.2309
     46 C         143.5438  141.5394  164.4694 C.ar    1  UNL1        0.0983
     47 C         143.9498  140.2405  165.1001 C.ar    1  UNL1        0.0206
     48 C         144.1854  139.0320  164.2434 C.ar    1  UNL1        0.0016
     49 C         144.0149  139.1225  162.7558 C.ar    1  UNL1        0.0016
     50 C         143.6088  140.4214  162.1251 C.ar    1  UNL1        0.0188
     51 C         143.3733  141.6298  162.9818 C.ar    1  UNL1        0.0785
@<TRIPOS>BOND
     1    23    24    1
     2    24    22    1
     3    22    20    1
     4    20    17    1
     5    17    18    2
     6    17    19    2
     7    17     9    1
     8     9    10   ar
     9    10    11   ar
    10    11     1    1
    11     1     2    2
    12     1     3   am
    13     3     4    1
    14     4     5    1
    15     5     6    1
    16     6    32    1
    17    32    33    1
    18    33    34    1
    19    34    35    1
    20    35    36    1
    21    36    37    1
    22    37    38    1
    23    38    39    1
    24    39    40    1
    25    40    42    1
    26    42    43   ar
    27    43    44    1
    28    43    45   ar
    29    45    46   ar
    30    46    47   ar
    31    47    48   ar
    32    48    49   ar
    33    49    50   ar
    34    50    51   ar
    35    40    41    1
    36     6    25    1
    37    25    26   ar
    38    26    27   ar
    39    27    28   ar
    40    28    29   ar
    41    29    30    1
    42    29    31   ar
    43     6     7    1
    44     7     8    1
    45    11    12   ar
    46    12    13    1
    47    12    14   ar
    48    14    15   ar
    49    15    16    1
    50    15     9   ar
    51     8     3    1
    52    38    34    1
    53    51    42   ar
    54    31    25   ar
    55    41    35    1
    56    51    46   ar
    57    20    21    1
@<TRIPOS>MOLECULE
*****
 51 57 0 0 0
SMALL
GASTEIGER

@<TRIPOS>ATOM
      1 C         139.9055  144.4435  159.2415 C.2     1  UNL1        0.2499
      2 O         139.6058  145.8978  159.4540 O.2     1  UNL1       -0.2699
      3 N         140.5405  143.6406  160.3379 N.am    1  UNL1       -0.2760
      4 C         140.8758  144.2920  161.6468 C.3     1  UNL1        0.0940
      5 C         141.5108  143.4892  162.7432 C.3     1  UNL1        0.0257
      6 C         141.8105  142.0348  162.5308 C.3     1  UNL1        0.0236
      7 C         141.4752  141.3833  161.2219 C.3     1  UNL1        0.0257
      8 C         140.8402  142.1862  160.1255 C.3     1  UNL1        0.0940
      9 C         138.0352  142.2467  156.5164 C.ar    1  UNL1        0.1494
     10 C         138.3704  142.8982  157.8253 C.ar    1  UNL1        0.0276
     11 C         139.5702  143.7920  157.9326 C.ar    1  UNL1        0.0656
     12 C         140.4348  144.0343  156.7310 C.ar    1  UNL1        0.0643
     13 CL        141.6346  144.9282  156.8384 Cl      1  UNL1       -0.0820
     14 C         140.0995  143.3829  155.4221 C.ar    1  UNL1        0.0426
     15 C         138.8997  142.4891  155.3148 C.ar    1  UNL1        0.1594
     16 F         138.5644  141.8376  154.0060 F       1  UNL1       -0.2027
     17 S         136.8353  141.3529  156.4091 S.O2    1  UNL1        0.0624
     18 O         137.5750  140.2722  157.1405 O.2     1  UNL1       -0.1529
     19 O         136.0957  142.4336  155.6776 O.2     1  UNL1       -0.1529
     20 N         135.6355  140.4590  156.3018 N.3     1  UNL1       -0.1793
     21 H         135.9530  139.5904  155.8715 H       1  UNL1        0.1488
     22 C         134.4311  140.9098  155.5296 C.3     1  UNL1        0.0915
     23 C         132.8844  139.6946  157.2270 C.3     1  UNL1        0.0015
     24 C         133.0552  140.5667  156.0185 C.3     1  UNL1        0.0188
     25 C         142.3102  142.2012  163.9354 C.ar    1  UNL1       -0.0204
     26 C         141.5503  141.5963  165.0783 C.ar    1  UNL1       -0.0041
     27 C         142.0500  141.7627  166.4829 C.ar    1  UNL1        0.0020
     28 C         143.3096  142.5343  166.7443 C.ar    1  UNL1        0.0296
     29 C         144.0694  143.1393  165.6012 C.ar    1  UNL1        0.1398
     30 F         145.3289  143.9107  165.8626 F       1  UNL1       -0.2042
     31 C         143.5697  142.9727  164.1967 C.ar    1  UNL1        0.0254
     32 C         142.2837  140.6383  162.8061 C.3     1  UNL1        0.0215
     33 C         143.4497  140.0781  162.0467 C.3     1  UNL1        0.0723
     34 N         143.9954  140.8147  160.8596 N.3     1  UNL1       -0.2751
     35 C         144.8469  142.0490  160.9028 C.3     1  UNL1        0.0594
     36 C         145.1632  142.4436  159.4907 C.3     1  UNL1        0.0174
     37 C         144.5073  141.4533  158.5747 C.3     1  UNL1        0.0174
     38 C         143.7856  140.4466  159.4206 C.3     1  UNL1        0.0594
     39 C         143.1651  139.5971  160.5035 C.3     1  UNL1        0.0386
     40 C         143.4602  140.0862  161.8903 C.3     1  UNL1        0.0893
     41 C         144.3012  141.3122  162.0900 C.3     1  UNL1        0.0386
     42 N         142.9145  139.3495  163.0775 N.ar    1  UNL1       -0.3167
     43 C         143.6439  139.0815  164.3605 C.ar    1  UNL1        0.1207
     44 C         145.0340  139.6449  164.3447 C.3     1  UNL1        0.0718
     45 N         142.7237  138.3178  165.2660 N.ar    1  UNL1       -0.2309
     46 C         141.4256  138.1138  164.5427 C.ar    1  UNL1        0.0983
     47 C         140.1514  137.4299  164.9410 C.ar    1  UNL1        0.0206
     48 C         138.9951  137.3836  163.9866 C.ar    1  UNL1        0.0016
     49 C         139.1130  138.0212  162.6340 C.ar    1  UNL1        0.0016
     50 C         140.3872  138.7051  162.2358 C.ar    1  UNL1        0.0188
     51 C         141.5435  138.7515  163.1901 C.ar    1  UNL1        0.0785
@<TRIPOS>BOND
     1    23    24    1
     2    24    22    1
     3    22    20    1
     4    20    17    1
     5    17    18    2
     6    17    19    2
     7    17     9    1
     8     9    10   ar
     9    10    11   ar
    10    11     1    1
    11     1     2    2
    12     1     3   am
    13     3     4    1
    14     4     5    1
    15     5     6    1
    16     6    32    1
    17    32    33    1
    18    33    34    1
    19    34    35    1
    20    35    36    1
    21    36    37    1
    22    37    38    1
    23    38    39    1
    24    39    40    1
    25    40    42    1
    26    42    43   ar
    27    43    44    1
    28    43    45   ar
    29    45    46   ar
    30    46    47   ar
    31    47    48   ar
    32    48    49   ar
    33    49    50   ar
    34    50    51   ar
    35    40    41    1
    36     6    25    1
    37    25    26   ar
    38    26    27   ar
    39    27    28   ar
    40    28    29   ar
    41    29    30    1
    42    29    31   ar
    43     6     7    1
    44     7     8    1
    45    11    12   ar
    46    12    13    1
    47    12    14   ar
    48    14    15   ar
    49    15    16    1
    50    15     9   ar
    51     8     3    1
    52    38    34    1
    53    51    42   ar
    54    31    25   ar
    55    41    35    1
    56    51    46   ar
    57    20    21    1
@<TRIPOS>MOLECULE
*****
 51 57 0 0 0
SMALL
GASTEIGER

@<TRIPOS>ATOM
      1 C         140.1309  139.0490  157.4817 C.2     1  UNL1        0.2499
      2 O         138.7925  139.0014  156.8061 O.2     1  UNL1       -0.2699
      3 N         140.3042  139.8339  158.7482 N.am    1  UNL1       -0.2760
      4 C         139.1392  140.5712  159.3390 C.3     1  UNL1        0.0940
      5 C         139.3125  141.3561  160.6054 C.3     1  UNL1        0.0257
      6 C         140.6509  141.4037  161.2811 C.3     1  UNL1        0.0236
      7 C         141.8160  140.6664  160.6902 C.3     1  UNL1        0.0257
      8 C         141.6426  139.8815  159.4238 C.3     1  UNL1        0.0940
      9 C         142.5726  136.0885  156.4702 C.ar    1  UNL1        0.1494
     10 C         141.4075  136.8257  157.0610 C.ar    1  UNL1        0.0276
     11 C         141.2960  138.3118  156.8909 C.ar    1  UNL1        0.0656
     12 C         142.3496  139.0608  156.1299 C.ar    1  UNL1        0.0643
     13 CL        142.2380  140.5469  155.9598 Cl      1  UNL1       -0.0820
     14 C         143.5147  138.3236  155.5391 C.ar    1  UNL1        0.0426
     15 C         143.6262  136.8375  155.7092 C.ar    1  UNL1        0.1594
     16 F         144.7913  136.1002  155.1185 F       1  UNL1       -0.2027
     17 S         142.6842  134.6024  156.6403 S.O2    1  UNL1        0.0624
     18 O         143.4495  134.8057  157.9143 O.2     1  UNL1       -0.1529
     19 O         141.9189  134.3991  155.3664 O.2     1  UNL1       -0.1529
     20 N         142.7958  133.1162  156.8105 N.3     1  UNL1       -0.1793
     21 H         143.1053  132.9519  157.7684 H       1  UNL1        0.1488
     22 C         143.7072  132.3256  155.9193 C.3     1  UNL1        0.0915
     23 C         145.3813  132.0200  157.8824 C.3     1  UNL1        0.0015
     24 C         144.9499  131.7015  156.4816 C.3     1  UNL1        0.0188
     25 C         139.8546  142.2609  162.2198 C.ar    1  UNL1       -0.0204
     26 C         139.4044  141.7094  163.5400 C.ar    1  UNL1       -0.0041
     27 C         138.6080  142.5666  164.4787 C.ar    1  UNL1        0.0020
     28 C         138.2619  143.9754  164.0971 C.ar    1  UNL1        0.0296
     29 C         138.7122  144.5269  162.7768 C.ar    1  UNL1        0.1398
     30 F         138.3661  145.9356  162.3952 F       1  UNL1       -0.2042
     31 C         139.5085  143.6696  161.8382 C.ar    1  UNL1        0.0254
     32 C         141.7127  141.7490  162.2827 C.3     1  UNL1        0.0215
     33 C         142.8503  142.6450  161.8911 C.3     1  UNL1        0.0723
     34 N         143.1256  142.9179  160.4421 N.3     1  UNL1       -0.2751
     35 C         142.3670  143.8688  159.5644 C.3     1  UNL1        0.0594
     36 C         142.9804  143.8265  158.1962 C.3     1  UNL1        0.0174
     37 C         144.1180  142.8493  158.2283 C.3     1  UNL1        0.0174
     38 C         144.2078  142.2878  159.6163 C.3     1  UNL1        0.0594
     39 C         144.0621  141.9035  161.0690 C.3     1  UNL1        0.0386
     40 C         142.9393  142.6132  161.7658 C.3     1  UNL1        0.0893
     41 C         142.0917  143.5959  161.0134 C.3     1  UNL1        0.0386
     42 N         142.6640  142.3403  163.2148 N.ar    1  UNL1       -0.3167
     43 C         142.3157  143.3642  164.2542 C.ar    1  UNL1        0.1207
     44 C         142.2662  144.7503  163.6829 C.3     1  UNL1        0.0718
     45 N         142.1251  142.6522  165.5606 N.ar    1  UNL1       -0.2309
     46 C         142.3556  141.1883  165.3287 C.ar    1  UNL1        0.0983
     47 C         142.3052  140.0059  166.2503 C.ar    1  UNL1        0.0206
     48 C         142.5879  138.6308  165.7222 C.ar    1  UNL1        0.0016
     49 C         142.9210  138.4380  164.2724 C.ar    1  UNL1        0.0016
     50 C         142.9713  139.6203  163.3507 C.ar    1  UNL1        0.0188
     51 C         142.6887  140.9955  163.8789 C.ar    1  UNL1        0.0785
@<TRIPOS>BOND
     1    23    24    1
     2    24    22    1
     3    22    20    1
     4    20    17    1
     5    17    18    2
     6    17    19    2
     7    17     9    1
     8     9    10   ar
     9    10    11   ar
    10    11     1    1
    11     1     2    2
    12     1     3   am
    13     3     4    1
    14     4     5    1
    15     5     6    1
    16     6    32    1
    17    32    33    1
    18    33    34    1
    19    34    35    1
    20    35    36    1
    21    36    37    1
    22    37    38    1
    23    38    39    1
    24    39    40    1
    25    40    42    1
    26    42    43   ar
    27    43    44    1
    28    43    45   ar
    29    45    46   ar
    30    46    47   ar
    31    47    48   ar
    32    48    49   ar
    33    49    50   ar
    34    50    51   ar
    35    40    41    1
    36     6    25    1
    37    25    26   ar
    38    26    27   ar
    39    27    28   ar
    40    28    29   ar
    41    29    30    1
    42    29    31   ar
    43     6     7    1
    44     7     8    1
    45    11    12   ar
    46    12    13    1
    47    12    14   ar
    48    14    15   ar
    49    15    16    1
    50    15     9   ar
    51     8     3    1
    52    38    34    1
    53    51    42   ar
    54    31    25   ar
    55    41    35    1
    56    51    46   ar
    57    20    21    1
@<TRIPOS>MOLECULE
*****
 51 57 0 0 0
SMALL
GASTEIGER

@<TRIPOS>ATOM
      1 C         143.1466  139.3194  157.7640 C.2     1  UNL1        0.2499
      2 O         144.4495  139.9138  157.3175 O.2     1  UNL1       -0.2699
      3 N         142.3771  139.9547  158.8839 N.am    1  UNL1       -0.2760
      4 C         142.9104  141.1843  159.5574 C.3     1  UNL1        0.0940
      5 C         142.1410  141.8196  160.6774 C.3     1  UNL1        0.0257
      6 C         140.8381  141.2252  161.1239 C.3     1  UNL1        0.0236
      7 C         140.3048  139.9956  160.4504 C.3     1  UNL1        0.0257
      8 C         141.0743  139.3603  159.3304 C.3     1  UNL1        0.0940
      9 C         142.7697  135.5419  156.6070 C.ar    1  UNL1        0.1494
     10 C         143.3031  136.7715  157.2805 C.ar    1  UNL1        0.0276
     11 C         142.6132  138.0898  157.0905 C.ar    1  UNL1        0.0656
     12 C         141.3899  138.1785  156.2271 C.ar    1  UNL1        0.0643
     13 CL        140.7000  139.4968  156.0371 Cl      1  UNL1       -0.0820
     14 C         140.8564  136.9490  155.5536 C.ar    1  UNL1        0.0426
     15 C         141.5463  135.6307  155.7436 C.ar    1  UNL1        0.1594
     16 F         141.0129  134.4010  155.0701 F       1  UNL1       -0.2027
     17 S         143.4596  134.2236  156.7970 S.O2    1  UNL1        0.0624
     18 O         143.6653  134.1177  155.3150 O.2     1  UNL1       -0.1529
     19 O         143.2539  134.3296  158.2791 O.2     1  UNL1       -0.1529
     20 N         144.1495  132.9052  156.9870 N.3     1  UNL1       -0.1793
     21 H         145.0751  133.1089  157.3641 H       1  UNL1        0.1488
     22 C         144.3509  131.9887  155.8167 C.3     1  UNL1        0.0915
     23 C         144.7780  129.5973  154.8956 C.3     1  UNL1        0.0015
     24 C         144.7650  130.5647  156.0419 C.3     1  UNL1        0.0188
     25 C         140.9301  142.3888  162.0661 C.ar    1  UNL1       -0.0204
     26 C         141.2675  142.1601  163.5096 C.ar    1  UNL1       -0.0041
     27 C         141.3595  143.3237  164.4518 C.ar    1  UNL1        0.0020
     28 C         141.1140  144.7160  163.9503 C.ar    1  UNL1        0.0296
     29 C         140.7766  144.9446  162.5067 C.ar    1  UNL1        0.1398
     30 F         140.5311  146.3368  162.0054 F       1  UNL1       -0.2042
     31 C         140.6846  143.7809  161.5647 C.ar    1  UNL1        0.0254
     32 C         139.5672  141.0349  161.8975 C.3     1  UNL1        0.0215
     33 C         138.2430  141.2800  161.2368 C.3     1  UNL1        0.0723
     34 N         138.1708  141.4764  159.7515 N.3     1  UNL1       -0.2751
     35 C         138.5038  142.7380  159.0117 C.3     1  UNL1        0.0594
     36 C         138.2918  142.4869  157.5481 C.3     1  UNL1        0.0174
     37 C         137.8278  141.0701  157.3834 C.3     1  UNL1        0.0174
     38 C         137.7530  140.4455  158.7451 C.3     1  UNL1        0.0594
     39 C         137.7723  140.0877  160.2117 C.3     1  UNL1        0.0386
     40 C         138.2102  141.2164  161.0971 C.3     1  UNL1        0.0893
     41 C         138.5760  142.5417  160.4970 C.3     1  UNL1        0.0386
     42 N         138.2824  141.0201  162.5824 N.ar    1  UNL1       -0.3167
     43 C         137.9717  142.0533  163.6245 C.ar    1  UNL1        0.1207
     44 C         137.5632  143.3614  163.0144 C.3     1  UNL1        0.0718
     45 N         138.1752  141.4278  164.9725 N.ar    1  UNL1       -0.2309
     46 C         138.6117  140.0080  164.7637 C.ar    1  UNL1        0.0983
     47 C         138.9575  138.9121  165.7277 C.ar    1  UNL1        0.0206
     48 C         139.3694  137.5642  165.2145 C.ar    1  UNL1        0.0016
     49 C         139.4357  137.3122  163.7373 C.ar    1  UNL1        0.0016
     50 C         139.0899  138.4081  162.7733 C.ar    1  UNL1        0.0188
     51 C         138.6780  139.7560  163.2865 C.ar    1  UNL1        0.0785
@<TRIPOS>BOND
     1    23    24    1
     2    24    22    1
     3    22    20    1
     4    20    17    1
     5    17    18    2
     6    17    19    2
     7    17     9    1
     8     9    10   ar
     9    10    11   ar
    10    11     1    1
    11     1     2    2
    12     1     3   am
    13     3     4    1
    14     4     5    1
    15     5     6    1
    16     6    32    1
    17    32    33    1
    18    33    34    1
    19    34    35    1
    20    35    36    1
    21    36    37    1
    22    37    38    1
    23    38    39    1
    24    39    40    1
    25    40    42    1
    26    42    43   ar
    27    43    44    1
    28    43    45   ar
    29    45    46   ar
    30    46    47   ar
    31    47    48   ar
    32    48    49   ar
    33    49    50   ar
    34    50    51   ar
    35    40    41    1
    36     6    25    1
    37    25    26   ar
    38    26    27   ar
    39    27    28   ar
    40    28    29   ar
    41    29    30    1
    42    29    31   ar
    43     6     7    1
    44     7     8    1
    45    11    12   ar
    46    12    13    1
    47    12    14   ar
    48    14    15   ar
    49    15    16    1
    50    15     9   ar
    51     8     3    1
    52    38    34    1
    53    51    42   ar
    54    31    25   ar
    55    41    35    1
    56    51    46   ar
    57    20    21    1
@<TRIPOS>MOLECULE
*****
 51 57 0 0 0
SMALL
GASTEIGER

@<TRIPOS>ATOM
      1 C         139.1323  140.8409  157.9167 C.2     1  UNL1        0.2499
      2 O         138.1792  139.9565  157.1687 O.2     1  UNL1       -0.2699
      3 N         139.3709  140.6177  159.3807 N.am    1  UNL1       -0.2760
      4 C         138.6564  139.5101  160.0967 C.3     1  UNL1        0.0940
      5 C         138.8950  139.2869  161.5606 C.3     1  UNL1        0.0257
      6 C         139.8481  140.1713  162.3087 C.3     1  UNL1        0.0236
      7 C         140.5626  141.2789  161.5926 C.3     1  UNL1        0.0257
      8 C         140.3240  141.5021  160.1286 C.3     1  UNL1        0.0940
      9 C         139.8761  144.3724  156.2657 C.ar    1  UNL1        0.1494
     10 C         139.1615  143.2648  156.9817 C.ar    1  UNL1        0.0276
     11 C         139.8468  141.9486  157.2007 C.ar    1  UNL1        0.0656
     12 C         141.2467  141.7399  156.7038 C.ar    1  UNL1        0.0643
     13 CL        141.9319  140.4237  156.9228 Cl      1  UNL1       -0.0820
     14 C         141.9612  142.8475  155.9878 C.ar    1  UNL1        0.0426
     15 C         141.2760  144.1637  155.7688 C.ar    1  UNL1        0.1594
     16 F         141.9905  145.2714  155.0528 F       1  UNL1       -0.2027
     17 S         139.1909  145.6886  156.0466 S.O2    1  UNL1        0.0624
     18 O         139.9971  146.2932  157.1577 O.2     1  UNL1       -0.1529
     19 O         138.3847  145.0839  154.9356 O.2     1  UNL1       -0.1529
     20 N         138.5056  147.0049  155.8276 N.3     1  UNL1       -0.1793
     21 H         137.6097  146.8004  155.3849 H       1  UNL1        0.1488
     22 C         139.1665  148.0655  154.9981 C.3     1  UNL1        0.0915
     23 C         138.2606  149.9101  156.5876 C.3     1  UNL1        0.0015
     24 C         138.9259  149.5144  155.3028 C.3     1  UNL1        0.0188
     25 C         139.4120  139.2610  163.4183 C.ar    1  UNL1       -0.0204
     26 C         139.7665  137.8041  163.3763 C.ar    1  UNL1       -0.0041
     27 C         139.3304  136.8938  164.4859 C.ar    1  UNL1        0.0020
     28 C         138.5398  137.4405  165.6375 C.ar    1  UNL1        0.0296
     29 C         138.1853  138.8974  165.6794 C.ar    1  UNL1        0.1398
     30 F         137.3947  139.4440  166.8310 F       1  UNL1       -0.2042
     31 C         138.6214  139.8076  164.5698 C.ar    1  UNL1        0.0254
     32 C         140.6497  140.7395  163.4419 C.3     1  UNL1        0.0215
     33 C         142.1327  140.5207  163.4954 C.3     1  UNL1        0.0723
     34 N         142.8388  139.8810  162.3369 N.3     1  UNL1       -0.2751
     35 C         142.9208  138.4095  162.0578 C.3     1  UNL1        0.0594
     36 C         143.7195  138.2196  160.8024 C.3     1  UNL1        0.0174
     37 C         144.1311  139.5737  160.3056 C.3     1  UNL1        0.0174
     38 C         143.5868  140.6006  161.2539 C.3     1  UNL1        0.0594
     39 C         142.9276  141.3946  162.3559 C.3     1  UNL1        0.0386
     40 C         142.2182  140.5418  163.3655 C.3     1  UNL1        0.0893
     41 C         142.2148  139.0491  163.2164 C.3     1  UNL1        0.0386
     42 N         141.5121  141.1814  164.5241 N.ar    1  UNL1       -0.3167
     43 C         141.4235  140.6298  165.9161 C.ar    1  UNL1        0.1207
     44 C         142.1398  139.3185  166.0474 C.3     1  UNL1        0.0718
     45 N         140.6273  141.5925  166.7463 N.ar    1  UNL1       -0.2309
     46 C         140.2238  142.7391  165.8674 C.ar    1  UNL1        0.0983
     47 C         139.4292  143.9817  166.1403 C.ar    1  UNL1        0.0206
     48 C         139.1814  144.9702  165.0397 C.ar    1  UNL1        0.0016
     49 C         139.7282  144.7161  163.6662 C.ar    1  UNL1        0.0016
     50 C         140.5229  143.4736  163.3933 C.ar    1  UNL1        0.0188
     51 C         140.7707  142.4850  164.4939 C.ar    1  UNL1        0.0785
@<TRIPOS>BOND
     1    23    24    1
     2    24    22    1
     3    22    20    1
     4    20    17    1
     5    17    18    2
     6    17    19    2
     7    17     9    1
     8     9    10   ar
     9    10    11   ar
    10    11     1    1
    11     1     2    2
    12     1     3   am
    13     3     4    1
    14     4     5    1
    15     5     6    1
    16     6    32    1
    17    32    33    1
    18    33    34    1
    19    34    35    1
    20    35    36    1
    21    36    37    1
    22    37    38    1
    23    38    39    1
    24    39    40    1
    25    40    42    1
    26    42    43   ar
    27    43    44    1
    28    43    45   ar
    29    45    46   ar
    30    46    47   ar
    31    47    48   ar
    32    48    49   ar
    33    49    50   ar
    34    50    51   ar
    35    40    41    1
    36     6    25    1
    37    25    26   ar
    38    26    27   ar
    39    27    28   ar
    40    28    29   ar
    41    29    30    1
    42    29    31   ar
    43     6     7    1
    44     7     8    1
    45    11    12   ar
    46    12    13    1
    47    12    14   ar
    48    14    15   ar
    49    15    16    1
    50    15     9   ar
    51     8     3    1
    52    38    34    1
    53    51    42   ar
    54    31    25   ar
    55    41    35    1
    56    51    46   ar
    57    20    21    1
@<TRIPOS>MOLECULE
*****
 51 57 0 0 0
SMALL
GASTEIGER

@<TRIPOS>ATOM
      1 C         140.0645  139.0425  157.4914 C.2     1  UNL1        0.2499
      2 O         138.7816  139.0991  156.7162 O.2     1  UNL1       -0.2699
      3 N         140.1457  139.6650  158.8538 N.am    1  UNL1       -0.2760
      4 C         138.9440  140.3441  159.4409 C.3     1  UNL1        0.0940
      5 C         139.0251  140.9665  160.8032 C.3     1  UNL1        0.0257
      6 C         140.3080  140.9099  161.5785 C.3     1  UNL1        0.0236
      7 C         141.5098  140.2308  160.9913 C.3     1  UNL1        0.0257
      8 C         141.4286  139.6084  159.6290 C.3     1  UNL1        0.0940
      9 C         142.6023  136.1929  156.4008 C.ar    1  UNL1        0.1494
     10 C         141.4005  136.8718  156.9879 C.ar    1  UNL1        0.0276
     11 C         141.2663  138.3635  156.9044 C.ar    1  UNL1        0.0656
     12 C         142.3339  139.1762  156.2337 C.ar    1  UNL1        0.0643
     13 CL        142.1997  140.6678  156.1501 Cl      1  UNL1       -0.0820
     14 C         143.5357  138.4972  155.6466 C.ar    1  UNL1        0.0426
     15 C         143.6699  137.0056  155.7302 C.ar    1  UNL1        0.1594
     16 F         144.8717  136.3265  155.1431 F       1  UNL1       -0.2027
     17 S         142.7365  134.7012  156.4844 S.O2    1  UNL1        0.0624
     18 O         142.0478  134.5650  155.1588 O.2     1  UNL1       -0.1529
     19 O         143.4251  134.8375  157.8100 O.2     1  UNL1       -0.1529
     20 N         142.8706  133.2095  156.5680 N.3     1  UNL1       -0.1793
     21 H         143.0589  132.9850  157.5450 H       1  UNL1        0.1488
     22 C         143.9132  132.5035  155.7527 C.3     1  UNL1        0.0915
     23 C         145.3590  132.0081  157.8538 C.3     1  UNL1        0.0015
     24 C         144.9826  131.7024  156.4343 C.3     1  UNL1        0.0188
     25 C         139.4480  141.6598  162.5523 C.ar    1  UNL1       -0.0204
     26 C         138.2399  141.0003  163.1484 C.ar    1  UNL1       -0.0041
     27 C         137.3799  141.7502  164.1222 C.ar    1  UNL1        0.0020
     28 C         137.7282  143.1595  164.4998 C.ar    1  UNL1        0.0296
     29 C         138.9365  143.8190  163.9036 C.ar    1  UNL1        0.1398
     30 F         139.2847  145.2282  164.2812 F       1  UNL1       -0.2042
     31 C         139.7963  143.0690  162.9298 C.ar    1  UNL1        0.0254
     32 C         141.2922  141.1137  162.6918 C.3     1  UNL1        0.0215
     33 C         141.6130  139.9843  163.6255 C.3     1  UNL1        0.0723
     34 N         140.5051  139.1789  164.2369 N.3     1  UNL1       -0.2751
     35 C         139.8779  137.9511  163.6460 C.3     1  UNL1        0.0594
     36 C         138.8150  137.4732  164.5904 C.3     1  UNL1        0.0174
     37 C         138.7853  138.4057  165.7650 C.3     1  UNL1        0.0174
     38 C         139.8298  139.4599  165.5465 C.3     1  UNL1        0.0594
     39 C         140.9343  140.3716  165.0690 C.3     1  UNL1        0.0386
     40 C         141.5141  139.9669  163.7462 C.3     1  UNL1        0.0893
     41 C         140.9858  138.7565  163.0346 C.3     1  UNL1        0.0386
     42 N         142.6220  140.7723  163.1348 N.ar    1  UNL1       -0.3167
     43 C         143.7007  140.2470  162.2345 C.ar    1  UNL1        0.1207
     44 C         143.5617  138.7734  161.9916 C.3     1  UNL1        0.0718
     45 N         144.5911  141.3945  161.8597 N.ar    1  UNL1       -0.2309
     46 C         144.0627  142.6289  162.5283 C.ar    1  UNL1        0.0983
     47 C         144.5324  144.0534  162.5213 C.ar    1  UNL1        0.0206
     48 C         143.7852  145.0934  163.3024 C.ar    1  UNL1        0.0016
     49 C         142.5682  144.7088  164.0904 C.ar    1  UNL1        0.0016
     50 C         142.0984  143.2843  164.0974 C.ar    1  UNL1        0.0188
     51 C         142.8457  142.2444  163.3163 C.ar    1  UNL1        0.0785
@<TRIPOS>BOND
     1    23    24    1
     2    24    22    1
     3    22    20    1
     4    20    17    1
     5    17    18    2
     6    17    19    2
     7    17     9    1
     8     9    10   ar
     9    10    11   ar
    10    11     1    1
    11     1     2    2
    12     1     3   am
    13     3     4    1
    14     4     5    1
    15     5     6    1
    16     6    32    1
    17    32    33    1
    18    33    34    1
    19    34    35    1
    20    35    36    1
    21    36    37    1
    22    37    38    1
    23    38    39    1
    24    39    40    1
    25    40    42    1
    26    42    43   ar
    27    43    44    1
    28    43    45   ar
    29    45    46   ar
    30    46    47   ar
    31    47    48   ar
    32    48    49   ar
    33    49    50   ar
    34    50    51   ar
    35    40    41    1
    36     6    25    1
    37    25    26   ar
    38    26    27   ar
    39    27    28   ar
    40    28    29   ar
    41    29    30    1
    42    29    31   ar
    43     6     7    1
    44     7     8    1
    45    11    12   ar
    46    12    13    1
    47    12    14   ar
    48    14    15   ar
    49    15    16    1
    50    15     9   ar
    51     8     3    1
    52    38    34    1
    53    51    42   ar
    54    31    25   ar
    55    41    35    1
    56    51    46   ar
    57    20    21    1
@<TRIPOS>MOLECULE
*****
 51 57 0 0 0
SMALL
GASTEIGER

@<TRIPOS>ATOM
      1 C         138.5227  141.3261  157.7490 C.2     1  UNL1        0.2499
      2 O         137.2315  140.6938  157.3212 O.2     1  UNL1       -0.2699
      3 N         139.1230  140.9794  159.0792 N.am    1  UNL1       -0.2760
      4 C         138.4321  140.0005  159.9817 C.3     1  UNL1        0.0940
      5 C         139.0323  139.6539  161.3118 C.3     1  UNL1        0.0257
      6 C         140.3235  140.2861  161.7397 C.3     1  UNL1        0.0236
      7 C         141.0145  141.2650  160.8373 C.3     1  UNL1        0.0257
      8 C         140.4142  141.6117  159.5071 C.3     1  UNL1        0.0940
      9 C         139.7054  144.7571  156.1430 C.ar    1  UNL1        0.1494
     10 C         139.0144  143.7783  157.0454 C.ar    1  UNL1        0.0276
     11 C         139.2138  142.3050  156.8466 C.ar    1  UNL1        0.0656
     12 C         140.1042  141.8105  155.7454 C.ar    1  UNL1        0.0643
     13 CL        140.3036  140.3371  155.5466 Cl      1  UNL1       -0.0820
     14 C         140.7952  142.7893  154.8430 C.ar    1  UNL1        0.0426
     15 C         140.5959  144.2626  155.0418 C.ar    1  UNL1        0.1594
     16 F         141.2869  145.2415  154.1395 F       1  UNL1       -0.2027
     17 S         139.5060  146.2305  156.3418 S.O2    1  UNL1        0.0624
     18 O         138.4570  146.2332  155.2697 O.2     1  UNL1       -0.1529
     19 O         140.5551  146.2278  157.4139 O.2     1  UNL1       -0.1529
     20 N         139.3066  147.7039  156.5406 N.3     1  UNL1       -0.1793
     21 H         138.5594  147.8100  157.2267 H       1  UNL1        0.1488
     22 C         138.9502  148.5765  155.3738 C.3     1  UNL1        0.0915
     23 C         138.5802  150.5803  156.9855 C.3     1  UNL1        0.0015
     24 C         138.5875  150.0149  155.5962 C.3     1  UNL1        0.0188
     25 C         140.0477  139.4226  162.9349 C.ar    1  UNL1       -0.0204
     26 C         140.8601  138.1835  163.1685 C.ar    1  UNL1       -0.0041
     27 C         140.5843  137.3200  164.3637 C.ar    1  UNL1        0.0020
     28 C         139.4960  137.6957  165.3251 C.ar    1  UNL1        0.0296
     29 C         138.6835  138.9348  165.0915 C.ar    1  UNL1        0.1398
     30 F         137.5953  139.3104  166.0530 F       1  UNL1       -0.2042
     31 C         138.9595  139.7983  163.8963 C.ar    1  UNL1        0.0254
     32 C         141.5189  140.6185  162.5826 C.3     1  UNL1        0.0215
     33 C         141.6653  141.9916  163.1684 C.3     1  UNL1        0.0723
     34 N         140.7154  143.0820  162.7702 N.3     1  UNL1       -0.2751
     35 C         139.3106  143.2529  163.2677 C.3     1  UNL1        0.0594
     36 C         138.7305  144.4695  162.6096 C.3     1  UNL1        0.0174
     37 C         139.7767  145.0507  161.7053 C.3     1  UNL1        0.0174
     38 C         141.0035  144.1932  161.8045 C.3     1  UNL1        0.0594
     39 C         142.0726  143.1690  162.0997 C.3     1  UNL1        0.0386
     40 C         141.6416  142.1205  163.0818 C.3     1  UNL1        0.0893
     41 C         140.2605  142.1624  163.6659 C.3     1  UNL1        0.0386
     42 N         142.5915  141.0300  163.4800 N.ar    1  UNL1       -0.3167
     43 C         143.6733  140.4458  162.6208 C.ar    1  UNL1        0.1207
     44 C         143.7186  141.0831  161.2637 C.3     1  UNL1        0.0718
     45 N         144.3768  139.3870  163.4171 N.ar    1  UNL1       -0.2309
     46 C         143.7297  139.3169  164.7686 C.ar    1  UNL1        0.0983
     47 C         144.0027  138.4596  165.9688 C.ar    1  UNL1        0.0206
     48 C         143.1723  138.6178  167.2079 C.ar    1  UNL1        0.0016
     49 C         142.0689  139.6332  167.2468 C.ar    1  UNL1        0.0016
     50 C         141.7960  140.4905  166.0466 C.ar    1  UNL1        0.0188
     51 C         142.6264  140.3323  164.8075 C.ar    1  UNL1        0.0785
@<TRIPOS>BOND
     1    23    24    1
     2    24    22    1
     3    22    20    1
     4    20    17    1
     5    17    18    2
     6    17    19    2
     7    17     9    1
     8     9    10   ar
     9    10    11   ar
    10    11     1    1
    11     1     2    2
    12     1     3   am
    13     3     4    1
    14     4     5    1
    15     5     6    1
    16     6    32    1
    17    32    33    1
    18    33    34    1
    19    34    35    1
    20    35    36    1
    21    36    37    1
    22    37    38    1
    23    38    39    1
    24    39    40    1
    25    40    42    1
    26    42    43   ar
    27    43    44    1
    28    43    45   ar
    29    45    46   ar
    30    46    47   ar
    31    47    48   ar
    32    48    49   ar
    33    49    50   ar
    34    50    51   ar
    35    40    41    1
    36     6    25    1
    37    25    26   ar
    38    26    27   ar
    39    27    28   ar
    40    28    29   ar
    41    29    30    1
    42    29    31   ar
    43     6     7    1
    44     7     8    1
    45    11    12   ar
    46    12    13    1
    47    12    14   ar
    48    14    15   ar
    49    15    16    1
    50    15     9   ar
    51     8     3    1
    52    38    34    1
    53    51    42   ar
    54    31    25   ar
    55    41    35    1
    56    51    46   ar
    57    20    21    1
@<TRIPOS>MOLECULE
*****
 51 57 0 0 0
SMALL
GASTEIGER

@<TRIPOS>ATOM
      1 C         140.6706  142.4337  158.3974 C.2     1  UNL1        0.2499
      2 O         141.3230  143.6899  157.9012 O.2     1  UNL1       -0.2699
      3 N         140.7798  142.0528  159.8441 N.am    1  UNL1       -0.2760
      4 C         141.5414  142.9281  160.7947 C.3     1  UNL1        0.0940
      5 C         141.6506  142.5473  162.2414 C.3     1  UNL1        0.0257
      6 C         140.9982  141.2910  162.7376 C.3     1  UNL1        0.0236
      7 C         140.2365  140.4156  161.7869 C.3     1  UNL1        0.0257
      8 C         140.1273  140.7966  160.3402 C.3     1  UNL1        0.0940
      9 C         137.7005  140.9618  156.2150 C.ar    1  UNL1        0.1494
     10 C         138.4621  141.8372  157.1656 C.ar    1  UNL1        0.0276
     11 C         139.9089  141.5583  157.4468 C.ar    1  UNL1        0.0656
     12 C         140.5941  140.4039  156.7775 C.ar    1  UNL1        0.0643
     13 CL        142.0408  140.1250  157.0587 Cl      1  UNL1       -0.0820
     14 C         139.8325  139.5285  155.8269 C.ar    1  UNL1        0.0426
     15 C         138.3857  139.8074  155.5457 C.ar    1  UNL1        0.1594
     16 F         137.6240  138.9320  154.5952 F       1  UNL1       -0.2027
     17 S         136.2538  141.2407  155.9338 S.O2    1  UNL1        0.0624
     18 O         136.6468  142.1191  154.7832 O.2     1  UNL1       -0.1529
     19 O         135.8608  140.3624  157.0845 O.2     1  UNL1       -0.1529
     20 N         134.8070  141.5197  155.6526 N.3     1  UNL1       -0.1793
     21 H         134.5806  142.3984  156.1184 H       1  UNL1        0.1488
     22 C         133.7585  140.5289  156.0637 C.3     1  UNL1        0.0915
     23 C         131.2741  140.1407  156.7171 C.3     1  UNL1        0.0015
     24 C         132.3054  140.8647  155.9034 C.3     1  UNL1        0.0188
     25 C         141.6067  141.7903  164.0145 C.ar    1  UNL1       -0.0204
     26 C         143.0961  141.7767  164.1911 C.ar    1  UNL1       -0.0041
     27 C         143.7046  142.2760  165.4680 C.ar    1  UNL1        0.0020
     28 C         142.8235  142.7890  166.5683 C.ar    1  UNL1        0.0296
     29 C         141.3340  142.8026  166.3916 C.ar    1  UNL1        0.1398
     30 F         140.4530  143.3155  167.4919 F       1  UNL1       -0.2042
     31 C         140.7256  142.3032  165.1147 C.ar    1  UNL1        0.0254
     32 C         140.5570  140.2082  163.6771 C.3     1  UNL1        0.0215
     33 C         141.1532  138.8356  163.5726 C.3     1  UNL1        0.0723
     34 N         142.0860  138.5070  162.4450 N.3     1  UNL1       -0.2751
     35 C         143.5403  138.8670  162.3703 C.3     1  UNL1        0.0594
     36 C         144.0815  138.3430  161.0731 C.3     1  UNL1        0.0174
     37 C         142.9618  137.6592  160.3462 C.3     1  UNL1        0.0174
     38 C         141.7285  137.7604  161.1940 C.3     1  UNL1        0.0594
     39 C         140.6680  138.0112  162.2388 C.3     1  UNL1        0.0386
     40 C         141.1712  138.7678  163.4322 C.3     1  UNL1        0.0893
     41 C         142.6074  139.1957  163.4980 C.3     1  UNL1        0.0386
     42 N         140.2383  139.0965  164.5599 N.ar    1  UNL1       -0.3167
     43 C         138.7496  139.2483  164.4569 C.ar    1  UNL1        0.1207
     44 C         138.2582  139.0307  163.0565 C.3     1  UNL1        0.0718
     45 N         138.2216  139.5768  165.8219 N.ar    1  UNL1       -0.2309
     46 C         139.3840  139.6280  166.7686 C.ar    1  UNL1        0.0983
     47 C         139.4686  139.9065  168.2401 C.ar    1  UNL1        0.0206
     48 C         140.7995  139.8882  168.9315 C.ar    1  UNL1        0.0016
     49 C         142.0459  139.5914  168.1516 C.ar    1  UNL1        0.0016
     50 C         141.9614  139.3128  166.6801 C.ar    1  UNL1        0.0188
     51 C         140.6304  139.3311  165.9886 C.ar    1  UNL1        0.0785
@<TRIPOS>BOND
     1    23    24    1
     2    24    22    1
     3    22    20    1
     4    20    17    1
     5    17    18    2
     6    17    19    2
     7    17     9    1
     8     9    10   ar
     9    10    11   ar
    10    11     1    1
    11     1     2    2
    12     1     3   am
    13     3     4    1
    14     4     5    1
    15     5     6    1
    16     6    32    1
    17    32    33    1
    18    33    34    1
    19    34    35    1
    20    35    36    1
    21    36    37    1
    22    37    38    1
    23    38    39    1
    24    39    40    1
    25    40    42    1
    26    42    43   ar
    27    43    44    1
    28    43    45   ar
    29    45    46   ar
    30    46    47   ar
    31    47    48   ar
    32    48    49   ar
    33    49    50   ar
    34    50    51   ar
    35    40    41    1
    36     6    25    1
    37    25    26   ar
    38    26    27   ar
    39    27    28   ar
    40    28    29   ar
    41    29    30    1
    42    29    31   ar
    43     6     7    1
    44     7     8    1
    45    11    12   ar
    46    12    13    1
    47    12    14   ar
    48    14    15   ar
    49    15    16    1
    50    15     9   ar
    51     8     3    1
    52    38    34    1
    53    51    42   ar
    54    31    25   ar
    55    41    35    1
    56    51    46   ar
    57    20    21    1
