@<TRIPOS>MOLECULE
*****
 26 29 0 0 0
SMALL
GASTEIGER

@<TRIPOS>ATOM
      1 C         139.9297  138.7935  165.5743 C.3     1  UNL1        0.0414
      2 C         138.6058  138.0932  165.6578 C.3     1  UNL1        0.0377
      3 C         137.7353  138.2766  166.8656 C.3     1  UNL1        0.1423
      4 O         138.1887  139.1601  167.9897 O.3     1  UNL1       -0.3585
      5 C         139.5126  139.8603  167.9062 C.3     1  UNL1        0.0931
      6 C         140.8041  140.6211  167.9638 C.3     1  UNL1        0.0272
      7 C         140.8438  141.3691  169.2633 C.3     1  UNL1        0.0025
      8 C         139.5768  141.0707  170.0089 C.3     1  UNL1        0.0025
      9 C         138.7541  140.1382  169.1701 C.3     1  UNL1        0.0272
     10 C         140.3831  139.6770  166.6984 C.3     1  UNL1        0.0329
     11 C         143.9089  140.1354  163.9572 C.ar    1  UNL1        0.0207
     12 C         143.8338  138.9552  164.8800 C.ar    1  UNL1        0.0028
     13 C         142.5073  138.5079  165.4190 C.ar    1  UNL1        0.0147
     14 C         141.2561  139.2408  165.0352 C.ar    1  UNL1        0.0585
     15 N         141.3313  140.4209  164.1125 N.ar    1  UNL1       -0.2482
     16 C         142.6578  140.8683  163.5735 C.ar    1  UNL1        0.0984
     17 C         139.9369  138.0653  164.2629 C.3     1  UNL1        0.0228
     18 C         138.7977  138.2384  163.3026 C.3     1  UNL1        0.0692
     19 N         138.8392  139.3347  162.2795 N.3     1  UNL1       -0.2933
     20 H         138.8783  138.8833  161.3657 H       1  UNL1        0.1236
     21 C         137.7316  140.3443  162.2168 C.3     1  UNL1        0.1022
     22 C         137.8757  141.6605  162.9217 C.ar    1  UNL1        0.0232
     23 C         137.9898  141.8590  164.4041 C.ar    1  UNL1        0.0041
     24 C         138.1157  143.3304  164.6666 C.ar    1  UNL1        0.0072
     25 C         138.0794  144.0414  163.3463 C.ar    1  UNL1        0.0352
     26 S         137.9312  143.0094  162.2679 S.2     1  UNL1       -0.0894
@<TRIPOS>BOND
     1    11    12   ar
     2    12    13   ar
     3    13    14   ar
     4    14     1    1
     5     1    17    1
     6    17    18    1
     7    18    19    1
     8    19    21    1
     9    21    22    1
    10    22    23   ar
    11    23    24   ar
    12    24    25   ar
    13    25    26   ar
    14     1     2    1
    15     2     3    1
    16     3     4    1
    17     4     5    1
    18     5     6    1
    19     6     7    1
    20     7     8    1
    21     8     9    1
    22     5    10    1
    23    14    15   ar
    24    15    16   ar
    25    16    11   ar
    26    10     1    1
    27    26    22   ar
    28     9     5    1
    29    19    20    1
@<TRIPOS>MOLECULE
*****
 26 29 0 0 0
SMALL
GASTEIGER

@<TRIPOS>ATOM
      1 C         140.9077  140.8154  166.2206 C.3     1  UNL1        0.0414
      2 C         141.4653  139.8315  167.2060 C.3     1  UNL1        0.0377
      3 C         142.7902  139.1783  166.9457 C.3     1  UNL1        0.1423
      4 O         143.5575  139.5089  165.6999 O.3     1  UNL1       -0.3585
      5 C         142.9999  140.4928  164.7145 C.3     1  UNL1        0.0931
      6 C         142.5716  141.4518  163.6436 C.3     1  UNL1        0.0272
      7 C         143.6373  141.4742  162.5883 C.3     1  UNL1        0.0025
      8 C         144.7242  140.5289  163.0069 C.3     1  UNL1        0.0025
      9 C         144.3303  139.9224  164.3210 C.3     1  UNL1        0.0272
     10 C         141.6750  141.1461  164.9749 C.3     1  UNL1        0.0329
     11 C         138.0963  143.7803  164.3350 C.ar    1  UNL1        0.0207
     12 C         139.1105  144.2422  165.3390 C.ar    1  UNL1        0.0028
     13 C         140.0476  143.2539  165.9675 C.ar    1  UNL1        0.0147
     14 C         139.9705  141.8037  165.5920 C.ar    1  UNL1        0.0585
     15 N         138.9563  141.3419  164.5881 N.ar    1  UNL1       -0.2482
     16 C         138.0192  142.3302  163.9595 C.ar    1  UNL1        0.0984
     17 C         139.8149  140.8280  167.2480 C.3     1  UNL1        0.0228
     18 C         139.0413  139.5755  167.5355 C.3     1  UNL1        0.0692
     19 N         138.1065  139.0178  166.5034 N.3     1  UNL1       -0.2933
     20 H         138.0329  139.7169  165.7643 H       1  UNL1        0.1236
     21 C         138.4203  137.7122  165.8347 C.3     1  UNL1        0.1022
     22 C         139.3117  137.6825  164.6287 C.ar    1  UNL1        0.0232
     23 C         140.7739  137.3480  164.6210 C.ar    1  UNL1        0.0041
     24 C         141.2633  137.4408  163.2062 C.ar    1  UNL1        0.0072
     25 C         140.1036  137.8327  162.3394 C.ar    1  UNL1        0.0352
     26 S         138.8975  137.9821  163.2185 S.2     1  UNL1       -0.0894
@<TRIPOS>BOND
     1    11    12   ar
     2    12    13   ar
     3    13    14   ar
     4    14     1    1
     5     1    17    1
     6    17    18    1
     7    18    19    1
     8    19    21    1
     9    21    22    1
    10    22    23   ar
    11    23    24   ar
    12    24    25   ar
    13    25    26   ar
    14     1     2    1
    15     2     3    1
    16     3     4    1
    17     4     5    1
    18     5     6    1
    19     6     7    1
    20     7     8    1
    21     8     9    1
    22     5    10    1
    23    14    15   ar
    24    15    16   ar
    25    16    11   ar
    26    10     1    1
    27    26    22   ar
    28     9     5    1
    29    19    20    1
@<TRIPOS>MOLECULE
*****
 26 29 0 0 0
SMALL
GASTEIGER

@<TRIPOS>ATOM
      1 C         138.9516  140.9673  165.4497 C.3     1  UNL1        0.0414
      2 C         138.1613  139.7051  165.6287 C.3     1  UNL1        0.0377
      3 C         138.2085  138.9695  166.9351 C.3     1  UNL1        0.1423
      4 O         139.0460  139.4963  168.0626 O.3     1  UNL1       -0.3585
      5 C         139.8363  140.7586  167.8836 C.3     1  UNL1        0.0931
      6 C         140.6756  142.0014  167.8525 C.3     1  UNL1        0.0272
      7 C         141.3395  142.1459  169.1898 C.3     1  UNL1        0.0025
      8 C         140.9105  140.9924  170.0474 C.3     1  UNL1        0.0025
      9 C         139.9814  140.1350  169.2401 C.3     1  UNL1        0.0272
     10 C         139.7891  141.4941  166.5772 C.3     1  UNL1        0.0329
     11 C         140.6553  144.6496  163.5033 C.ar    1  UNL1        0.0207
     12 C         139.3503  144.7257  164.2390 C.ar    1  UNL1        0.0028
     13 C         138.7824  143.4983  164.8878 C.ar    1  UNL1        0.0147
     14 C         139.5195  142.1948  164.8009 C.ar    1  UNL1        0.0585
     15 N         140.8244  142.1187  164.0652 N.ar    1  UNL1       -0.2482
     16 C         141.3924  143.3462  163.4164 C.ar    1  UNL1        0.0984
     17 C         138.3114  140.8669  164.0970 C.3     1  UNL1        0.0228
     18 C         138.4819  139.6224  163.2771 C.3     1  UNL1        0.0692
     19 N         139.7638  139.3825  162.5358 N.3     1  UNL1       -0.2933
     20 H         140.2935  140.2533  162.5741 H       1  UNL1        0.1236
     21 C         140.6927  138.2908  162.9779 C.3     1  UNL1        0.1022
     22 C         141.7919  138.5907  163.9534 C.ar    1  UNL1        0.0232
     23 C         141.6925  138.5045  165.4476 C.ar    1  UNL1        0.0041
     24 C         143.0227  138.8899  166.0238 C.ar    1  UNL1        0.0072
     25 C         143.9443  139.2143  164.8856 C.ar    1  UNL1        0.0352
     26 S         143.1837  139.0293  163.6061 S.2     1  UNL1       -0.0894
@<TRIPOS>BOND
     1    11    12   ar
     2    12    13   ar
     3    13    14   ar
     4    14     1    1
     5     1    17    1
     6    17    18    1
     7    18    19    1
     8    19    21    1
     9    21    22    1
    10    22    23   ar
    11    23    24   ar
    12    24    25   ar
    13    25    26   ar
    14     1     2    1
    15     2     3    1
    16     3     4    1
    17     4     5    1
    18     5     6    1
    19     6     7    1
    20     7     8    1
    21     8     9    1
    22     5    10    1
    23    14    15   ar
    24    15    16   ar
    25    16    11   ar
    26    10     1    1
    27    26    22   ar
    28     9     5    1
    29    19    20    1
@<TRIPOS>MOLECULE
*****
 26 29 0 0 0
SMALL
GASTEIGER

@<TRIPOS>ATOM
      1 C         141.4672  141.5959  165.9997 C.3     1  UNL1        0.0414
      2 C         141.6846  141.3847  164.5307 C.3     1  UNL1        0.0377
      3 C         140.8500  140.3861  163.7850 C.3     1  UNL1        0.1423
      4 O         139.7979  139.5987  164.5083 O.3     1  UNL1       -0.3585
      5 C         139.5805  139.8099  165.9773 C.3     1  UNL1        0.0931
      6 C         139.2504  139.9121  167.4370 C.3     1  UNL1        0.0272
      7 C         138.1398  138.9474  167.7296 C.3     1  UNL1        0.0025
      8 C         137.7834  138.2489  166.4509 C.3     1  UNL1        0.0025
      9 C         138.6739  138.7819  165.3679 C.3     1  UNL1        0.0272
     10 C         140.4151  140.8085  166.7230 C.3     1  UNL1        0.0329
     11 C         141.9718  143.2495  170.1544 C.ar    1  UNL1        0.0207
     12 C         140.6941  143.4834  169.4041 C.ar    1  UNL1        0.0028
     13 C         140.5259  142.9322  168.0193 C.ar    1  UNL1        0.0147
     14 C         141.6354  142.1471  167.3847 C.ar    1  UNL1        0.0585
     15 N         142.9130  141.9132  168.1349 N.ar    1  UNL1       -0.2482
     16 C         143.0812  142.4644  169.5199 C.ar    1  UNL1        0.0984
     17 C         142.5776  142.5748  165.7574 C.3     1  UNL1        0.0228
     18 C         142.7161  143.2353  164.4179 C.3     1  UNL1        0.0692
     19 N         142.5093  144.7152  164.2865 N.3     1  UNL1       -0.2933
     20 H         143.3853  145.1053  163.9387 H       1  UNL1        0.1236
     21 C         141.4187  145.2445  163.4030 C.3     1  UNL1        0.1022
     22 C         140.0015  144.8002  163.6130 C.ar    1  UNL1        0.0232
     23 C         139.3297  144.5923  164.9379 C.ar    1  UNL1        0.0041
     24 C         137.9203  144.1494  164.6787 C.ar    1  UNL1        0.0072
     25 C         137.7210  144.0834  163.1935 C.ar    1  UNL1        0.0352
     26 S         139.0072  144.4856  162.5348 S.2     1  UNL1       -0.0894
@<TRIPOS>BOND
     1    11    12   ar
     2    12    13   ar
     3    13    14   ar
     4    14     1    1
     5     1    17    1
     6    17    18    1
     7    18    19    1
     8    19    21    1
     9    21    22    1
    10    22    23   ar
    11    23    24   ar
    12    24    25   ar
    13    25    26   ar
    14     1     2    1
    15     2     3    1
    16     3     4    1
    17     4     5    1
    18     5     6    1
    19     6     7    1
    20     7     8    1
    21     8     9    1
    22     5    10    1
    23    14    15   ar
    24    15    16   ar
    25    16    11   ar
    26    10     1    1
    27    26    22   ar
    28     9     5    1
    29    19    20    1
@<TRIPOS>MOLECULE
*****
 26 29 0 0 0
SMALL
GASTEIGER

@<TRIPOS>ATOM
      1 C         141.5990  142.2739  164.4335 C.3     1  UNL1        0.0414
      2 C         141.5042  142.7077  163.0008 C.3     1  UNL1        0.0377
      3 C         141.3926  141.6816  161.9123 C.3     1  UNL1        0.1423
      4 O         141.3757  140.2218  162.2566 O.3     1  UNL1       -0.3585
      5 C         141.4705  139.7880  163.6894 C.3     1  UNL1        0.0931
      6 C         141.5570  139.2065  165.0694 C.3     1  UNL1        0.0272
      7 C         141.5042  137.7125  164.9470 C.3     1  UNL1        0.0025
      8 C         141.3850  137.3705  163.4913 C.3     1  UNL1        0.0025
      9 C         141.3642  138.6533  162.7141 C.3     1  UNL1        0.0272
     10 C         141.5822  140.8140  164.7778 C.3     1  UNL1        0.0329
     11 C         141.9424  142.5236  168.9135 C.ar    1  UNL1        0.0207
     12 C         143.1681  142.2976  168.0787 C.ar    1  UNL1        0.0028
     13 C         143.0536  142.2143  166.5854 C.ar    1  UNL1        0.0147
     14 C         141.7135  142.3571  165.9269 C.ar    1  UNL1        0.0585
     15 N         140.4879  142.5832  166.7616 N.ar    1  UNL1       -0.2482
     16 C         140.6024  142.6664  168.2550 C.ar    1  UNL1        0.0984
     17 C         141.6556  143.7626  164.6079 C.3     1  UNL1        0.0228
     18 C         140.5916  144.6296  164.0026 C.3     1  UNL1        0.0692
     19 N         139.4354  145.0920  164.8390 N.3     1  UNL1       -0.2933
     20 H         139.2830  146.0749  164.6129 H       1  UNL1        0.1236
     21 C         138.1048  144.4094  164.7221 C.3     1  UNL1        0.1022
     22 C         137.9849  143.1269  163.9534 C.ar    1  UNL1        0.0232
     23 C         137.9966  141.7450  164.5367 C.ar    1  UNL1        0.0041
     24 C         137.8511  140.7652  163.4103 C.ar    1  UNL1        0.0072
     25 C         137.7494  141.5416  162.1309 C.ar    1  UNL1        0.0352
     26 S         137.8320  143.0011  162.4665 S.2     1  UNL1       -0.0894
@<TRIPOS>BOND
     1    11    12   ar
     2    12    13   ar
     3    13    14   ar
     4    14     1    1
     5     1    17    1
     6    17    18    1
     7    18    19    1
     8    19    21    1
     9    21    22    1
    10    22    23   ar
    11    23    24   ar
    12    24    25   ar
    13    25    26   ar
    14     1     2    1
    15     2     3    1
    16     3     4    1
    17     4     5    1
    18     5     6    1
    19     6     7    1
    20     7     8    1
    21     8     9    1
    22     5    10    1
    23    14    15   ar
    24    15    16   ar
    25    16    11   ar
    26    10     1    1
    27    26    22   ar
    28     9     5    1
    29    19    20    1
@<TRIPOS>MOLECULE
*****
 26 29 0 0 0
SMALL
GASTEIGER

@<TRIPOS>ATOM
      1 C         142.9458  143.1198  165.1059 C.3     1  UNL1        0.0414
      2 C         143.5805  144.2017  164.2834 C.3     1  UNL1        0.0377
      3 C         142.7209  145.1687  163.5245 C.3     1  UNL1        0.1423
      4 O         141.2267  145.0538  163.5881 O.3     1  UNL1       -0.3585
      5 C         140.5920  143.9719  164.4107 C.3     1  UNL1        0.0931
      6 C         139.8188  142.9473  165.1868 C.3     1  UNL1        0.0272
      7 C         138.3576  143.2036  164.9651 C.3     1  UNL1        0.0025
      8 C         138.2277  144.3866  164.0521 C.3     1  UNL1        0.0025
      9 C         139.6087  144.8614  163.7094 C.3     1  UNL1        0.0272
     10 C         141.4516  143.0049  165.1696 C.3     1  UNL1        0.0329
     11 C         142.5512  139.5649  167.8368 C.ar    1  UNL1        0.0207
     12 C         142.7191  140.9392  168.4141 C.ar    1  UNL1        0.0028
     13 C         142.8506  142.1241  167.5038 C.ar    1  UNL1        0.0147
     14 C         142.8143  141.9347  166.0162 C.ar    1  UNL1        0.0585
     15 N         142.6464  140.5606  165.4390 N.ar    1  UNL1       -0.2482
     16 C         142.5148  139.3756  166.3493 C.ar    1  UNL1        0.0984
     17 C         144.3944  142.8231  165.3584 C.3     1  UNL1        0.0228
     18 C         145.2924  142.4451  164.2179 C.3     1  UNL1        0.0692
     19 N         145.3617  141.0187  163.7589 N.3     1  UNL1       -0.2933
     20 H         144.8883  140.4580  164.4674 H       1  UNL1        0.1236
     21 C         144.7757  140.6277  162.4346 C.3     1  UNL1        0.1022
     22 C         143.7884  141.5301  161.7556 C.ar    1  UNL1        0.0232
     23 C         142.2985  141.4935  161.9254 C.ar    1  UNL1        0.0041
     24 C         141.7070  142.5683  161.0624 C.ar    1  UNL1        0.0072
     25 C         142.8313  143.2692  160.3591 C.ar    1  UNL1        0.0352
     26 S         144.1177  142.6276  160.7875 S.2     1  UNL1       -0.0894
@<TRIPOS>BOND
     1    11    12   ar
     2    12    13   ar
     3    13    14   ar
     4    14     1    1
     5     1    17    1
     6    17    18    1
     7    18    19    1
     8    19    21    1
     9    21    22    1
    10    22    23   ar
    11    23    24   ar
    12    24    25   ar
    13    25    26   ar
    14     1     2    1
    15     2     3    1
    16     3     4    1
    17     4     5    1
    18     5     6    1
    19     6     7    1
    20     7     8    1
    21     8     9    1
    22     5    10    1
    23    14    15   ar
    24    15    16   ar
    25    16    11   ar
    26    10     1    1
    27    26    22   ar
    28     9     5    1
    29    19    20    1
@<TRIPOS>MOLECULE
*****
 26 29 0 0 0
SMALL
GASTEIGER

@<TRIPOS>ATOM
      1 C         139.7031  140.7527  163.1916 C.3     1  UNL1        0.0414
      2 C         140.2951  139.7815  162.2137 C.3     1  UNL1        0.0377
      3 C         140.2106  138.3072  162.4763 C.3     1  UNL1        0.1423
      4 O         139.5340  137.8039  163.7169 O.3     1  UNL1       -0.3585
      5 C         138.9420  138.7751  164.6949 C.3     1  UNL1        0.0931
      6 C         138.3073  139.6216  165.7581 C.3     1  UNL1        0.0272
      7 C         137.7544  138.7066  166.8104 C.3     1  UNL1        0.0025
      8 C         138.0474  137.2946  166.3974 C.3     1  UNL1        0.0025
      9 C         138.7814  137.3370  165.0899 C.3     1  UNL1        0.0272
     10 C         139.0265  140.2495  164.4322 C.3     1  UNL1        0.0329
     11 C         138.4849  144.6621  165.0579 C.ar    1  UNL1        0.0207
     12 C         137.6638  144.0718  163.9499 C.ar    1  UNL1        0.0028
     13 C         138.0699  142.7687  163.3278 C.ar    1  UNL1        0.0147
     14 C         139.2970  142.0559  163.8137 C.ar    1  UNL1        0.0585
     15 N         140.1179  142.6461  164.9216 N.ar    1  UNL1       -0.2482
     16 C         139.7119  143.9493  165.5438 C.ar    1  UNL1        0.0984
     17 C         140.2386  141.7085  162.1671 C.3     1  UNL1        0.0228
     18 C         141.7140  141.7790  161.9060 C.3     1  UNL1        0.0692
     19 N         142.6342  142.3407  162.9490 N.3     1  UNL1       -0.2933
     20 H         142.0436  142.7357  163.6808 H       1  UNL1        0.1236
     21 C         143.6293  141.4485  163.6300 C.3     1  UNL1        0.1022
     22 C         143.1574  140.3766  164.5671 C.ar    1  UNL1        0.0232
     23 C         143.1830  138.9003  164.3026 C.ar    1  UNL1        0.0041
     24 C         142.6185  138.2039  165.5052 C.ar    1  UNL1        0.0072
     25 C         142.2440  139.2498  166.5131 C.ar    1  UNL1        0.0352
     26 S         142.5771  140.5925  165.9334 S.2     1  UNL1       -0.0894
@<TRIPOS>BOND
     1    11    12   ar
     2    12    13   ar
     3    13    14   ar
     4    14     1    1
     5     1    17    1
     6    17    18    1
     7    18    19    1
     8    19    21    1
     9    21    22    1
    10    22    23   ar
    11    23    24   ar
    12    24    25   ar
    13    25    26   ar
    14     1     2    1
    15     2     3    1
    16     3     4    1
    17     4     5    1
    18     5     6    1
    19     6     7    1
    20     7     8    1
    21     8     9    1
    22     5    10    1
    23    14    15   ar
    24    15    16   ar
    25    16    11   ar
    26    10     1    1
    27    26    22   ar
    28     9     5    1
    29    19    20    1
@<TRIPOS>MOLECULE
*****
 26 29 0 0 0
SMALL
GASTEIGER

@<TRIPOS>ATOM
      1 C         139.0366  139.6027  164.4913 C.3     1  UNL1        0.0414
      2 C         138.5259  138.9546  163.2387 C.3     1  UNL1        0.0377
      3 C         137.8833  139.7892  162.1708 C.3     1  UNL1        0.1423
      4 O         137.7514  141.2719  162.3554 O.3     1  UNL1       -0.3585
      5 C         138.2622  141.9201  163.6080 C.3     1  UNL1        0.0931
      6 C         138.7234  142.7045  164.8004 C.3     1  UNL1        0.0272
      7 C         138.3922  144.1479  164.5619 C.3     1  UNL1        0.0025
      8 C         137.7264  144.2556  163.2222 C.3     1  UNL1        0.0025
      9 C         137.6460  142.8786  162.6326 C.3     1  UNL1        0.0272
     10 C         138.9048  141.0855  164.6759 C.3     1  UNL1        0.0329
     11 C         140.9351  140.0571  168.5459 C.ar    1  UNL1        0.0207
     12 C         139.4486  139.8952  168.4277 C.ar    1  UNL1        0.0028
     13 C         138.8157  139.7437  167.0762 C.ar    1  UNL1        0.0147
     14 C         139.6695  139.7542  165.8429 C.ar    1  UNL1        0.0585
     15 N         141.1559  139.9162  165.9611 N.ar    1  UNL1       -0.2482
     16 C         141.7888  140.0677  167.3126 C.ar    1  UNL1        0.0984
     17 C         139.3882  138.1726  164.7761 C.3     1  UNL1        0.0228
     18 C         140.2585  137.4099  163.8217 C.3     1  UNL1        0.0692
     19 N         141.7500  137.5563  163.8860 N.3     1  UNL1       -0.2933
     20 H         142.1304  136.6245  164.0519 H       1  UNL1        0.1236
     21 C         142.4985  138.1282  162.7187 C.3     1  UNL1        0.1022
     22 C         141.9544  139.3215  161.9907 C.ar    1  UNL1        0.0232
     23 C         141.8938  140.7242  162.5186 C.ar    1  UNL1        0.0041
     24 C         141.2773  141.5912  161.4612 C.ar    1  UNL1        0.0072
     25 C         140.9569  140.7244  160.2798 C.ar    1  UNL1        0.0352
     26 S         141.3754  139.3216  160.6070 S.2     1  UNL1       -0.0894
@<TRIPOS>BOND
     1    11    12   ar
     2    12    13   ar
     3    13    14   ar
     4    14     1    1
     5     1    17    1
     6    17    18    1
     7    18    19    1
     8    19    21    1
     9    21    22    1
    10    22    23   ar
    11    23    24   ar
    12    24    25   ar
    13    25    26   ar
    14     1     2    1
    15     2     3    1
    16     3     4    1
    17     4     5    1
    18     5     6    1
    19     6     7    1
    20     7     8    1
    21     8     9    1
    22     5    10    1
    23    14    15   ar
    24    15    16   ar
    25    16    11   ar
    26    10     1    1
    27    26    22   ar
    28     9     5    1
    29    19    20    1
@<TRIPOS>MOLECULE
*****
 26 29 0 0 0
SMALL
GASTEIGER

@<TRIPOS>ATOM
      1 C         141.9050  143.2349  164.3606 C.3     1  UNL1        0.0414
      2 C         142.8533  142.8858  165.4692 C.3     1  UNL1        0.0377
      3 C         142.5035  141.7976  166.4405 C.3     1  UNL1        0.1423
      4 O         141.2055  141.0584  166.3032 O.3     1  UNL1       -0.3585
      5 C         140.2573  141.4075  165.1946 C.3     1  UNL1        0.0931
      6 C         139.2148  141.6444  164.1425 C.3     1  UNL1        0.0272
      7 C         138.0871  140.6849  164.3830 C.3     1  UNL1        0.0025
      8 C         138.4327  139.8551  165.5838 C.3     1  UNL1        0.0025
      9 C         139.7740  140.3016  166.0855 C.3     1  UNL1        0.0272
     10 C         140.6070  142.4957  164.2234 C.3     1  UNL1        0.0329
     11 C         140.2079  145.3016  160.7415 C.ar    1  UNL1        0.0207
     12 C         140.0276  145.9048  162.1030 C.ar    1  UNL1        0.0028
     13 C         140.5934  145.2159  163.3094 C.ar    1  UNL1        0.0147
     14 C         141.3393  143.9238  163.1542 C.ar    1  UNL1        0.0585
     15 N         141.5195  143.3207  161.7928 N.ar    1  UNL1       -0.2482
     16 C         140.9537  144.0096  160.5863 C.ar    1  UNL1        0.0984
     17 C         143.0065  144.2133  164.0789 C.3     1  UNL1        0.0228
     18 C         144.3939  143.7192  163.7944 C.3     1  UNL1        0.0692
     19 N         144.8028  143.4013  162.3866 N.3     1  UNL1       -0.2933
     20 H         145.7230  143.8183  162.2459 H       1  UNL1        0.1236
     21 C         144.9015  141.9731  161.9387 C.3     1  UNL1        0.1022
     22 C         144.4773  140.8674  162.8592 C.ar    1  UNL1        0.0232
     23 C         145.2532  140.3526  164.0352 C.ar    1  UNL1        0.0041
     24 C         144.4582  139.2494  164.6682 C.ar    1  UNL1        0.0072
     25 C         143.1908  139.0824  163.8834 C.ar    1  UNL1        0.0352
     26 S         143.2026  140.0823  162.7655 S.2     1  UNL1       -0.0894
@<TRIPOS>BOND
     1    11    12   ar
     2    12    13   ar
     3    13    14   ar
     4    14     1    1
     5     1    17    1
     6    17    18    1
     7    18    19    1
     8    19    21    1
     9    21    22    1
    10    22    23   ar
    11    23    24   ar
    12    24    25   ar
    13    25    26   ar
    14     1     2    1
    15     2     3    1
    16     3     4    1
    17     4     5    1
    18     5     6    1
    19     6     7    1
    20     7     8    1
    21     8     9    1
    22     5    10    1
    23    14    15   ar
    24    15    16   ar
    25    16    11   ar
    26    10     1    1
    27    26    22   ar
    28     9     5    1
    29    19    20    1
