@<TRIPOS>MOLECULE
*****
 34 38 0 0 0
SMALL
GASTEIGER

@<TRIPOS>ATOM
      1 C         138.6759  140.9975  158.6323 C.2     1  UNL1        0.0937
      2 N         138.4800  142.4816  158.5365 N.2     1  UNL1       -0.1518
      3 N         138.3314  143.0205  159.9284 N.2     1  UNL1       -0.1519
      4 C         138.4354  141.8694  160.8846 C.2     1  UNL1        0.0932
      5 C         138.6483  140.6192  160.0836 C.3     1  UNL1        0.1454
      6 C         138.7523  139.4681  161.0397 C.2     1  UNL1        0.1840
      7 O         138.9672  138.0306  160.6690 O.2     1  UNL1       -0.2905
      8 C         138.6037  140.0069  162.4317 C.ar    1  UNL1        0.0364
      9 C         138.6214  139.3379  163.7741 C.ar    1  UNL1       -0.0000
     10 C         138.4433  140.1530  165.0207 C.ar    1  UNL1       -0.0060
     11 C         138.2474  141.6371  164.9248 C.ar    1  UNL1       -0.0029
     12 C         138.2297  142.3061  163.5824 C.ar    1  UNL1        0.0011
     13 C         138.4079  141.4910  162.3359 C.ar    1  UNL1        0.0188
     14 C         139.6004  138.1779  156.1303 C.ar    1  UNL1        0.0710
     15 C         139.6929  138.8056  157.4895 C.ar    1  UNL1        0.0165
     16 C         138.8659  140.0570  157.4794 C.ar    1  UNL1        0.0237
     17 C         138.2622  140.2027  156.1140 C.ar    1  UNL1        0.0373
     18 S         138.7162  139.0413  155.2802 S.2     1  UNL1       -0.0780
     19 C         140.9473  135.6412  155.2642 C.1     1  UNL1       -0.0534
     20 C         140.2739  136.9095  155.6972 C.1     1  UNL1       -0.0554
     21 C         141.6208  134.3727  154.8310 C.3     1  UNL1        0.2182
     22 O         141.5456  133.1501  155.6968 O.3     1  UNL1       -0.3374
     23 C         142.7391  132.7254  156.5001 C.3     1  UNL1        0.1755
     24 C         143.4887  133.7335  157.3198 C.3     1  UNL1        0.1743
     25 C         145.3692  132.0347  157.8925 C.3     1  UNL1        0.1742
     26 O         144.6128  133.2908  158.2088 O.3     1  UNL1       -0.3484
     27 C         138.4610  139.4840  166.3632 C.3     1  UNL1        0.0992
     28 N         139.5823  139.7558  167.3218 N.3     1  UNL1       -0.2665
     29 C         141.0032  139.7253  166.8420 C.3     1  UNL1        0.0899
     30 C         142.1244  139.9971  167.8006 C.3     1  UNL1        0.0897
     31 N         141.8248  140.2993  169.2390 N.3     1  UNL1       -0.2691
     32 C         142.9460  140.5710  170.1976 C.3     1  UNL1        0.0897
     33 C         140.4039  140.3297  169.7187 C.3     1  UNL1        0.0897
     34 C         139.2827  140.0580  168.7601 C.3     1  UNL1        0.0899
@<TRIPOS>BOND
     1    25    26    1
     2    26    24    1
     3    24    23    1
     4    23    22    1
     5    22    21    1
     6    21    19    1
     7    19    20    3
     8    20    14    1
     9    14    15   ar
    10    15    16   ar
    11    16     1    1
    12     1     2    2
    13     2     3    1
    14     3     4    2
    15     4     5    1
    16     5     6    1
    17     6     7    2
    18     6     8    1
    19     8     9   ar
    20     9    10   ar
    21    10    27    1
    22    27    28    1
    23    28    29    1
    24    29    30    1
    25    30    31    1
    26    31    32    1
    27    31    33    1
    28    33    34    1
    29    10    11   ar
    30    11    12   ar
    31    12    13   ar
    32    16    17   ar
    33    17    18   ar
    34    18    14   ar
    35     5     1    1
    36    13     8   ar
    37    13     4    1
    38    34    28    1
@<TRIPOS>MOLECULE
*****
 34 38 0 0 0
SMALL
GASTEIGER

@<TRIPOS>ATOM
      1 C         138.7706  140.2178  162.7226 C.2     1  UNL1        0.0937
      2 N         137.5937  140.8452  162.0361 N.2     1  UNL1       -0.1518
      3 N         137.7162  140.5746  160.5658 N.2     1  UNL1       -0.1519
      4 C         138.9689  139.7799  160.3437 C.2     1  UNL1        0.0932
      5 C         139.6205  139.5594  161.6766 C.3     1  UNL1        0.1454
      6 C         140.8731  138.7648  161.4544 C.2     1  UNL1        0.1840
      7 O         141.8345  138.3190  162.5161 O.2     1  UNL1       -0.2905
      8 C         140.9957  138.4941  159.9841 C.ar    1  UNL1        0.0364
      9 C         142.0269  137.7574  159.1818 C.ar    1  UNL1       -0.0000
     10 C         141.8812  137.6481  157.6929 C.ar    1  UNL1       -0.0060
     11 C         140.7043  138.2755  157.0064 C.ar    1  UNL1       -0.0029
     12 C         139.6731  139.0121  157.8088 C.ar    1  UNL1        0.0011
     13 C         139.8188  139.1214  159.2976 C.ar    1  UNL1        0.0188
     14 C         139.6438  141.0146  166.4197 C.ar    1  UNL1        0.0710
     15 C         139.4824  141.4406  164.9905 C.ar    1  UNL1        0.0165
     16 C         139.0488  140.2442  164.1964 C.ar    1  UNL1        0.0237
     17 C         138.9421  139.0788  165.1347 C.ar    1  UNL1        0.0373
     18 S         139.3099  139.5549  166.5088 S.2     1  UNL1       -0.0780
     19 C         140.4864  142.7731  168.6994 C.1     1  UNL1       -0.0534
     20 C         140.0651  141.8939  167.5596 C.1     1  UNL1       -0.0554
     21 C         140.9078  143.6523  169.8393 C.3     1  UNL1        0.2182
     22 O         142.2582  143.4713  170.4668 O.3     1  UNL1       -0.3374
     23 C         143.2758  142.5837  169.8137 C.3     1  UNL1        0.1755
     24 C         143.3854  141.1437  170.2189 C.3     1  UNL1        0.1743
     25 C         142.6452  139.4203  168.4211 C.3     1  UNL1        0.1742
     26 O         142.3901  140.1435  169.7102 O.3     1  UNL1       -0.3484
     27 C         142.9125  136.9114  156.8904 C.3     1  UNL1        0.0992
     28 N         142.7458  135.4453  156.6202 N.3     1  UNL1       -0.2665
     29 C         141.7925  134.9820  155.5587 C.3     1  UNL1        0.0899
     30 C         141.6258  133.5160  155.2885 C.3     1  UNL1        0.0897
     31 N         142.4124  132.5133  156.0797 N.3     1  UNL1       -0.2691
     32 C         142.2457  131.0473  155.8095 C.3     1  UNL1        0.0897
     33 C         143.3656  132.9767  157.1411 C.3     1  UNL1        0.0897
     34 C         143.5323  134.4427  157.4114 C.3     1  UNL1        0.0899
@<TRIPOS>BOND
     1    25    26    1
     2    26    24    1
     3    24    23    1
     4    23    22    1
     5    22    21    1
     6    21    19    1
     7    19    20    3
     8    20    14    1
     9    14    15   ar
    10    15    16   ar
    11    16     1    1
    12     1     2    2
    13     2     3    1
    14     3     4    2
    15     4     5    1
    16     5     6    1
    17     6     7    2
    18     6     8    1
    19     8     9   ar
    20     9    10   ar
    21    10    27    1
    22    27    28    1
    23    28    29    1
    24    29    30    1
    25    30    31    1
    26    31    32    1
    27    31    33    1
    28    33    34    1
    29    10    11   ar
    30    11    12   ar
    31    12    13   ar
    32    16    17   ar
    33    17    18   ar
    34    18    14   ar
    35     5     1    1
    36    13     8   ar
    37    13     4    1
    38    34    28    1
@<TRIPOS>MOLECULE
*****
 34 38 0 0 0
SMALL
GASTEIGER

@<TRIPOS>ATOM
      1 C         143.5361  143.1636  160.5601 C.2     1  UNL1        0.0937
      2 N         144.4958  142.4223  159.6773 N.2     1  UNL1       -0.1518
      3 N         144.1507  142.7353  158.2514 N.2     1  UNL1       -0.1519
      4 C         142.9775  143.6701  158.2531 C.2     1  UNL1        0.0932
      5 C         142.5978  143.9348  159.6798 C.3     1  UNL1        0.1454
      6 C         141.4247  144.8697  159.6814 C.2     1  UNL1        0.1840
      7 O         140.7205  145.3986  160.8956 O.2     1  UNL1       -0.2905
      8 C         141.0795  145.1827  158.2556 C.ar    1  UNL1        0.0364
      9 C         140.0152  146.0470  157.6472 C.ar    1  UNL1       -0.0000
     10 C         139.9107  146.1700  156.1559 C.ar    1  UNL1       -0.0060
     11 C         140.8704  145.4286  155.2731 C.ar    1  UNL1       -0.0029
     12 C         141.9347  144.5643  155.8816 C.ar    1  UNL1        0.0011
     13 C         142.0392  144.4413  157.3729 C.ar    1  UNL1        0.0188
     14 C         143.2713  142.3821  164.3527 C.ar    1  UNL1        0.0710
     15 C         143.1534  141.9628  162.9173 C.ar    1  UNL1        0.0165
     16 C         143.5179  143.1383  162.0597 C.ar    1  UNL1        0.0237
     17 C         143.8610  144.2840  162.9651 C.ar    1  UNL1        0.0373
     18 S         143.7086  143.8166  164.3823 S.2     1  UNL1       -0.0780
     19 C         142.7277  140.6547  166.7444 C.1     1  UNL1       -0.0534
     20 C         142.9995  141.5184  165.5486 C.1     1  UNL1       -0.0554
     21 C         142.4560  139.7909  167.9403 C.3     1  UNL1        0.2182
     22 O         143.1006  140.1084  169.2570 O.3     1  UNL1       -0.3374
     23 C         143.1383  141.5240  169.7516 C.3     1  UNL1        0.1755
     24 C         142.1406  141.9893  170.7704 C.3     1  UNL1        0.1743
     25 C         140.4978  143.7139  169.7325 C.3     1  UNL1        0.1742
     26 O         141.5938  143.3844  170.7022 O.3     1  UNL1       -0.3484
     27 C         138.8464  147.0343  155.5473 C.3     1  UNL1        0.0992
     28 N         139.1626  148.4460  155.1507 N.3     1  UNL1       -0.2665
     29 C         138.5659  149.5911  155.9141 C.3     1  UNL1        0.0899
     30 C         138.8821  151.0027  155.5175 C.3     1  UNL1        0.0897
     31 N         139.7950  151.2692  154.3574 N.3     1  UNL1       -0.2691
     32 C         140.1112  152.6808  153.9608 C.3     1  UNL1        0.0897
     33 C         140.3916  150.1241  153.5941 C.3     1  UNL1        0.0897
     34 C         140.0754  148.7125  153.9907 C.3     1  UNL1        0.0899
@<TRIPOS>BOND
     1    25    26    1
     2    26    24    1
     3    24    23    1
     4    23    22    1
     5    22    21    1
     6    21    19    1
     7    19    20    3
     8    20    14    1
     9    14    15   ar
    10    15    16   ar
    11    16     1    1
    12     1     2    2
    13     2     3    1
    14     3     4    2
    15     4     5    1
    16     5     6    1
    17     6     7    2
    18     6     8    1
    19     8     9   ar
    20     9    10   ar
    21    10    27    1
    22    27    28    1
    23    28    29    1
    24    29    30    1
    25    30    31    1
    26    31    32    1
    27    31    33    1
    28    33    34    1
    29    10    11   ar
    30    11    12   ar
    31    12    13   ar
    32    16    17   ar
    33    17    18   ar
    34    18    14   ar
    35     5     1    1
    36    13     8   ar
    37    13     4    1
    38    34    28    1
@<TRIPOS>MOLECULE
*****
 34 38 0 0 0
SMALL
GASTEIGER

@<TRIPOS>ATOM
      1 C         138.7717  139.7571  161.9177 C.2     1  UNL1        0.0937
      2 N         137.8187  140.8007  161.4152 N.2     1  UNL1       -0.1518
      3 N         138.1192  141.0434  159.9657 N.2     1  UNL1       -0.1519
      4 C         139.2579  140.1496  159.5725 C.2     1  UNL1        0.0932
      5 C         139.6611  139.3546  160.7789 C.3     1  UNL1        0.1454
      6 C         140.7998  138.4609  160.3857 C.2     1  UNL1        0.1840
      7 O         141.5129  137.4943  161.2841 O.2     1  UNL1       -0.2905
      8 C         141.1003  138.7035  158.9362 C.ar    1  UNL1        0.0364
      9 C         142.1186  138.1088  158.0091 C.ar    1  UNL1       -0.0000
     10 C         142.1838  138.5579  156.5794 C.ar    1  UNL1       -0.0060
     11 C         141.2309  139.6016  156.0769 C.ar    1  UNL1       -0.0029
     12 C         140.2126  140.1962  157.0039 C.ar    1  UNL1        0.0011
     13 C         140.1474  139.7471  158.4336 C.ar    1  UNL1        0.0188
     14 C         138.8929  139.0703  165.7360 C.ar    1  UNL1        0.0710
     15 C         138.8316  140.0207  164.5771 C.ar    1  UNL1        0.0165
     16 C         138.8258  139.2116  163.3140 C.ar    1  UNL1        0.0237
     17 C         138.8835  137.7612  163.6923 C.ar    1  UNL1        0.0373
     18 S         138.9250  137.6739  165.1892 S.2     1  UNL1       -0.0780
     19 C         138.9427  139.8293  168.6379 C.1     1  UNL1       -0.0534
     20 C         138.9178  139.4498  167.1870 C.1     1  UNL1       -0.0554
     21 C         138.9677  140.2087  170.0889 C.3     1  UNL1        0.2182
     22 O         138.1486  139.4365  171.0803 O.3     1  UNL1       -0.3374
     23 C         136.7045  139.1469  170.7964 C.3     1  UNL1        0.1755
     24 C         135.9783  138.1033  171.5924 C.3     1  UNL1        0.1743
     25 C         136.1558  136.1779  173.3277 C.3     1  UNL1        0.1742
     26 O         136.6205  137.5067  172.8095 O.3     1  UNL1       -0.3484
     27 C         143.2021  137.9633  155.6523 C.3     1  UNL1        0.0992
     28 N         143.1108  136.5166  155.2664 N.3     1  UNL1       -0.2665
     29 C         143.7760  135.4714  156.1120 C.3     1  UNL1        0.0899
     30 C         143.6847  134.0248  155.7261 C.3     1  UNL1        0.0897
     31 N         142.9281  133.6234  154.4946 N.3     1  UNL1       -0.2691
     32 C         142.8368  132.1767  154.1087 C.3     1  UNL1        0.0897
     33 C         142.2629  134.6686  153.6490 C.3     1  UNL1        0.0897
     34 C         142.3543  136.1152  154.0349 C.3     1  UNL1        0.0899
@<TRIPOS>BOND
     1    25    26    1
     2    26    24    1
     3    24    23    1
     4    23    22    1
     5    22    21    1
     6    21    19    1
     7    19    20    3
     8    20    14    1
     9    14    15   ar
    10    15    16   ar
    11    16     1    1
    12     1     2    2
    13     2     3    1
    14     3     4    2
    15     4     5    1
    16     5     6    1
    17     6     7    2
    18     6     8    1
    19     8     9   ar
    20     9    10   ar
    21    10    27    1
    22    27    28    1
    23    28    29    1
    24    29    30    1
    25    30    31    1
    26    31    32    1
    27    31    33    1
    28    33    34    1
    29    10    11   ar
    30    11    12   ar
    31    12    13   ar
    32    16    17   ar
    33    17    18   ar
    34    18    14   ar
    35     5     1    1
    36    13     8   ar
    37    13     4    1
    38    34    28    1
@<TRIPOS>MOLECULE
*****
 34 38 0 0 0
SMALL
GASTEIGER

@<TRIPOS>ATOM
      1 C         138.4252  140.2004  159.1362 C.2     1  UNL1        0.0937
      2 N         137.5228  140.6363  158.0200 N.2     1  UNL1       -0.1518
      3 N         138.0334  140.0288  156.7470 N.2     1  UNL1       -0.1519
      4 C         139.2513  139.2174  157.0765 C.2     1  UNL1        0.0932
      5 C         139.4934  139.3235  158.5531 C.3     1  UNL1        0.1454
      6 C         140.7113  138.5122  158.8825 C.2     1  UNL1        0.1840
      7 O         141.3130  138.3388  160.2455 O.2     1  UNL1       -0.2905
      8 C         141.2218  137.9047  157.6096 C.ar    1  UNL1        0.0364
      9 C         142.3918  137.0109  157.3227 C.ar    1  UNL1       -0.0000
     10 C         142.6594  136.5531  155.9196 C.ar    1  UNL1       -0.0060
     11 C         141.7571  136.9889  154.8034 C.ar    1  UNL1       -0.0029
     12 C         140.5871  137.8827  155.0904 C.ar    1  UNL1        0.0011
     13 C         140.3195  138.3406  156.4934 C.ar    1  UNL1        0.0188
     14 C         138.1272  140.4307  162.9992 C.ar    1  UNL1        0.0710
     15 C         138.2986  139.6276  161.7440 C.ar    1  UNL1        0.0165
     16 C         138.2841  140.5755  160.5816 C.ar    1  UNL1        0.0237
     17 C         138.1036  141.9645  161.1184 C.ar    1  UNL1        0.0373
     18 S         138.0067  141.8750  162.6127 S.2     1  UNL1       -0.0780
     19 C         138.0406  139.3398  165.7925 C.1     1  UNL1       -0.0534
     20 C         138.0839  139.8852  164.3959 C.1     1  UNL1       -0.0554
     21 C         137.9973  138.7945  167.1892 C.3     1  UNL1        0.2182
     22 O         138.7188  139.5061  168.2950 O.3     1  UNL1       -0.3374
     23 C         139.9567  140.2983  167.9948 C.3     1  UNL1        0.1755
     24 C         141.2667  139.9045  168.6102 C.3     1  UNL1        0.1743
     25 C         140.7706  140.6991  171.0335 C.3     1  UNL1        0.1742
     26 O         141.3665  139.6948  170.0920 O.3     1  UNL1       -0.3484
     27 C         143.8295  135.6593  155.6326 C.3     1  UNL1        0.0992
     28 N         143.7199  134.1818  155.8674 N.3     1  UNL1       -0.2665
     29 C         143.1127  133.2987  154.8178 C.3     1  UNL1        0.0899
     30 C         143.0032  131.8212  155.0525 C.3     1  UNL1        0.0897
     31 N         143.5008  131.2269  156.3368 N.3     1  UNL1       -0.2691
     32 C         143.3912  129.7494  156.5715 C.3     1  UNL1        0.0897
     33 C         144.1079  132.1100  157.3862 C.3     1  UNL1        0.0897
     34 C         144.2175  133.5875  157.1515 C.3     1  UNL1        0.0899
@<TRIPOS>BOND
     1    25    26    1
     2    26    24    1
     3    24    23    1
     4    23    22    1
     5    22    21    1
     6    21    19    1
     7    19    20    3
     8    20    14    1
     9    14    15   ar
    10    15    16   ar
    11    16     1    1
    12     1     2    2
    13     2     3    1
    14     3     4    2
    15     4     5    1
    16     5     6    1
    17     6     7    2
    18     6     8    1
    19     8     9   ar
    20     9    10   ar
    21    10    27    1
    22    27    28    1
    23    28    29    1
    24    29    30    1
    25    30    31    1
    26    31    32    1
    27    31    33    1
    28    33    34    1
    29    10    11   ar
    30    11    12   ar
    31    12    13   ar
    32    16    17   ar
    33    17    18   ar
    34    18    14   ar
    35     5     1    1
    36    13     8   ar
    37    13     4    1
    38    34    28    1
@<TRIPOS>MOLECULE
*****
 34 38 0 0 0
SMALL
GASTEIGER

@<TRIPOS>ATOM
      1 C         139.7200  139.1185  158.9404 C.2     1  UNL1        0.0937
      2 N         138.7606  140.1564  158.4380 N.2     1  UNL1       -0.1518
      3 N         138.0849  140.7765  159.6251 N.2     1  UNL1       -0.1519
      4 C         138.6268  140.1217  160.8611 C.2     1  UNL1        0.0932
      5 C         139.6373  139.0971  160.4379 C.3     1  UNL1        0.1454
      6 C         140.1791  138.4424  161.6740 C.2     1  UNL1        0.1840
      7 O         141.2147  137.3581  161.7157 O.2     1  UNL1       -0.2905
      8 C         139.5035  139.0624  162.8611 C.ar    1  UNL1        0.0364
      9 C         139.6379  138.8160  164.3346 C.ar    1  UNL1       -0.0000
     10 C         138.8130  139.6074  165.3056 C.ar    1  UNL1       -0.0060
     11 C         137.8536  140.6453  164.8033 C.ar    1  UNL1       -0.0029
     12 C         137.7192  140.8918  163.3298 C.ar    1  UNL1        0.0011
     13 C         138.5441  140.1003  162.3587 C.ar    1  UNL1        0.0188
     14 C         141.3769  136.7139  156.3835 C.ar    1  UNL1        0.0710
     15 C         140.1669  137.4068  156.9366 C.ar    1  UNL1        0.0165
     16 C         140.6064  138.2539  158.0938 C.ar    1  UNL1        0.0237
     17 C         142.0880  138.0846  158.2560 C.ar    1  UNL1        0.0373
     18 S         142.5642  137.1328  157.1989 S.2     1  UNL1       -0.0780
     19 C         141.4155  134.8225  154.0553 C.1     1  UNL1       -0.0534
     20 C         141.3962  135.7682  155.2194 C.1     1  UNL1       -0.0554
     21 C         141.4348  133.8768  152.8910 C.3     1  UNL1        0.2182
     22 O         141.3369  132.3983  153.1240 O.3     1  UNL1       -0.3374
     23 C         140.9728  131.8755  154.4820 C.3     1  UNL1        0.1755
     24 C         142.0496  131.4460  155.4338 C.3     1  UNL1        0.1743
     25 C         143.2194  133.0692  157.0913 C.3     1  UNL1        0.1742
     26 O         143.1780  132.3789  155.7602 O.3     1  UNL1       -0.3484
     27 C         138.9474  139.3610  166.7792 C.3     1  UNL1        0.0992
     28 N         139.7536  140.3005  167.6262 N.3     1  UNL1       -0.2665
     29 C         139.4812  140.4051  169.0976 C.3     1  UNL1        0.0899
     30 C         140.2874  141.3446  169.9446 C.3     1  UNL1        0.0897
     31 N         141.3660  142.1795  169.3203 N.3     1  UNL1       -0.2691
     32 C         142.1722  143.1189  170.1673 C.3     1  UNL1        0.0897
     33 C         141.6384  142.0748  167.8489 C.3     1  UNL1        0.0897
     34 C         140.8322  141.1353  167.0019 C.3     1  UNL1        0.0899
@<TRIPOS>BOND
     1    25    26    1
     2    26    24    1
     3    24    23    1
     4    23    22    1
     5    22    21    1
     6    21    19    1
     7    19    20    3
     8    20    14    1
     9    14    15   ar
    10    15    16   ar
    11    16     1    1
    12     1     2    2
    13     2     3    1
    14     3     4    2
    15     4     5    1
    16     5     6    1
    17     6     7    2
    18     6     8    1
    19     8     9   ar
    20     9    10   ar
    21    10    27    1
    22    27    28    1
    23    28    29    1
    24    29    30    1
    25    30    31    1
    26    31    32    1
    27    31    33    1
    28    33    34    1
    29    10    11   ar
    30    11    12   ar
    31    12    13   ar
    32    16    17   ar
    33    17    18   ar
    34    18    14   ar
    35     5     1    1
    36    13     8   ar
    37    13     4    1
    38    34    28    1
@<TRIPOS>MOLECULE
*****
 34 38 0 0 0
SMALL
GASTEIGER

@<TRIPOS>ATOM
      1 C         141.2709  144.8625  162.1227 C.2     1  UNL1        0.0937
      2 N         140.1190  145.7943  162.3568 N.2     1  UNL1       -0.1518
      3 N         139.6034  146.2390  161.0202 N.2     1  UNL1       -0.1519
      4 C         140.4368  145.5820  159.9600 C.2     1  UNL1        0.0932
      5 C         141.4673  144.7313  160.6414 C.3     1  UNL1        0.1454
      6 C         142.3007  144.0744  159.5812 C.2     1  UNL1        0.1840
      7 O         143.4480  143.1372  159.8163 O.2     1  UNL1       -0.2905
      8 C         141.7852  144.5191  158.2446 C.ar    1  UNL1        0.0364
      9 C         142.2159  144.1960  156.8446 C.ar    1  UNL1       -0.0000
     10 C         141.4947  144.8046  155.6787 C.ar    1  UNL1       -0.0060
     11 C         140.3428  145.7364  155.9128 C.ar    1  UNL1       -0.0029
     12 C         139.9121  146.0596  157.3128 C.ar    1  UNL1        0.0011
     13 C         140.6333  145.4509  158.4787 C.ar    1  UNL1        0.0188
     14 C         142.7383  142.7209  165.0082 C.ar    1  UNL1        0.0710
     15 C         141.5967  143.1137  164.1179 C.ar    1  UNL1        0.0165
     16 C         142.0837  144.1814  163.1836 C.ar    1  UNL1        0.0237
     17 C         143.5262  144.4485  163.4964 C.ar    1  UNL1        0.0373
     18 S         143.9308  143.5458  164.6241 S.2     1  UNL1       -0.0780
     19 C         142.6515  140.6493  167.1762 C.1     1  UNL1       -0.0534
     20 C         142.6949  141.6850  166.0922 C.1     1  UNL1       -0.0554
     21 C         142.6082  139.6135  168.2603 C.3     1  UNL1        0.2182
     22 O         143.0598  139.9606  169.6479 O.3     1  UNL1       -0.3374
     23 C         142.5228  141.1856  170.3269 C.3     1  UNL1        0.1755
     24 C         141.5004  141.0520  171.4163 C.3     1  UNL1        0.1743
     25 C         139.9056  142.9147  170.5575 C.3     1  UNL1        0.1742
     26 O         140.5494  142.1780  171.6946 O.3     1  UNL1       -0.3484
     27 C         141.9254  144.4815  154.2786 C.3     1  UNL1        0.0992
     28 N         143.2327  143.7866  154.0377 N.3     1  UNL1       -0.2665
     29 C         143.2976  142.2880  154.0426 C.3     1  UNL1        0.0899
     30 C         144.6049  141.5931  153.8016 C.3     1  UNL1        0.0897
     31 N         145.8474  142.3969  153.5557 N.3     1  UNL1       -0.2691
     32 C         147.1547  141.7020  153.3147 C.3     1  UNL1        0.0897
     33 C         145.7825  143.8954  153.5508 C.3     1  UNL1        0.0897
     34 C         144.4751  144.5903  153.7918 C.3     1  UNL1        0.0899
@<TRIPOS>BOND
     1    25    26    1
     2    26    24    1
     3    24    23    1
     4    23    22    1
     5    22    21    1
     6    21    19    1
     7    19    20    3
     8    20    14    1
     9    14    15   ar
    10    15    16   ar
    11    16     1    1
    12     1     2    2
    13     2     3    1
    14     3     4    2
    15     4     5    1
    16     5     6    1
    17     6     7    2
    18     6     8    1
    19     8     9   ar
    20     9    10   ar
    21    10    27    1
    22    27    28    1
    23    28    29    1
    24    29    30    1
    25    30    31    1
    26    31    32    1
    27    31    33    1
    28    33    34    1
    29    10    11   ar
    30    11    12   ar
    31    12    13   ar
    32    16    17   ar
    33    17    18   ar
    34    18    14   ar
    35     5     1    1
    36    13     8   ar
    37    13     4    1
    38    34    28    1
@<TRIPOS>MOLECULE
*****
 34 38 0 0 0
SMALL
GASTEIGER

@<TRIPOS>ATOM
      1 C         143.2888  143.2874  160.5198 C.2     1  UNL1        0.0937
      2 N         144.3220  142.5868  159.6881 N.2     1  UNL1       -0.1518
      3 N         144.0708  142.9311  158.2499 N.2     1  UNL1       -0.1519
      4 C         142.8822  143.8446  158.1927 C.2     1  UNL1        0.0932
      5 C         142.3990  144.0647  159.5956 C.3     1  UNL1        0.1454
      6 C         141.2105  144.9781  159.5384 C.2     1  UNL1        0.1840
      7 O         140.4133  145.4622  160.7131 O.2     1  UNL1       -0.2905
      8 C         140.9593  145.3224  158.1002 C.ar    1  UNL1        0.0364
      9 C         139.9232  146.1834  157.4405 C.ar    1  UNL1       -0.0000
     10 C         139.9203  146.3437  155.9491 C.ar    1  UNL1       -0.0060
     11 C         140.9535  145.6431  155.1174 C.ar    1  UNL1       -0.0029
     12 C         141.9896  144.7822  155.7771 C.ar    1  UNL1        0.0011
     13 C         141.9925  144.6218  157.2685 C.ar    1  UNL1        0.0188
     14 C         142.3768  142.6802  164.2433 C.ar    1  UNL1        0.0710
     15 C         142.1206  142.4692  162.7805 C.ar    1  UNL1        0.0165
     16 C         143.1668  143.2222  162.0134 C.ar    1  UNL1        0.0237
     17 C         144.0696  143.8986  163.0020 C.ar    1  UNL1        0.0373
     18 S         143.5813  143.5636  164.3803 S.2     1  UNL1       -0.0780
     19 C         140.7634  141.5362  166.4989 C.1     1  UNL1       -0.0534
     20 C         141.5701  142.1082  165.3712 C.1     1  UNL1       -0.0554
     21 C         139.9568  140.9642  167.6269 C.3     1  UNL1        0.2182
     22 O         139.3502  139.5984  167.4979 O.3     1  UNL1       -0.3374
     23 C         138.3833  139.3089  166.3882 C.3     1  UNL1        0.1755
     24 C         138.6730  138.2107  165.4084 C.3     1  UNL1        0.1743
     25 C         139.3668  139.7553  163.4379 C.3     1  UNL1        0.1742
     26 O         138.7042  138.5061  163.9382 O.3     1  UNL1       -0.3484
     27 C         138.8842  147.2047  155.2893 C.3     1  UNL1        0.0992
     28 N         139.2026  148.6290  154.9428 N.3     1  UNL1       -0.2665
     29 C         138.5997  149.7476  155.7399 C.3     1  UNL1        0.0899
     30 C         138.9181  151.1719  155.3934 C.3     1  UNL1        0.0897
     31 N         139.8394  151.4775  154.2497 N.3     1  UNL1       -0.2691
     32 C         140.1578  152.9018  153.9032 C.3     1  UNL1        0.0897
     33 C         140.4423  150.3589  153.4527 C.3     1  UNL1        0.0897
     34 C         140.1238  148.9347  153.7992 C.3     1  UNL1        0.0899
@<TRIPOS>BOND
     1    25    26    1
     2    26    24    1
     3    24    23    1
     4    23    22    1
     5    22    21    1
     6    21    19    1
     7    19    20    3
     8    20    14    1
     9    14    15   ar
    10    15    16   ar
    11    16     1    1
    12     1     2    2
    13     2     3    1
    14     3     4    2
    15     4     5    1
    16     5     6    1
    17     6     7    2
    18     6     8    1
    19     8     9   ar
    20     9    10   ar
    21    10    27    1
    22    27    28    1
    23    28    29    1
    24    29    30    1
    25    30    31    1
    26    31    32    1
    27    31    33    1
    28    33    34    1
    29    10    11   ar
    30    11    12   ar
    31    12    13   ar
    32    16    17   ar
    33    17    18   ar
    34    18    14   ar
    35     5     1    1
    36    13     8   ar
    37    13     4    1
    38    34    28    1
@<TRIPOS>MOLECULE
*****
 34 38 0 0 0
SMALL
GASTEIGER

@<TRIPOS>ATOM
      1 C         144.2531  141.9778  159.0008 C.2     1  UNL1        0.0937
      2 N         145.1681  142.5752  157.9734 N.2     1  UNL1       -0.1518
      3 N         145.2188  141.6428  156.7995 N.2     1  UNL1       -0.1519
      4 C         144.3350  140.4690  157.1015 C.2     1  UNL1        0.0932
      5 C         143.7381  140.6761  158.4619 C.3     1  UNL1        0.1454
      6 C         142.8543  139.5023  158.7639 C.2     1  UNL1        0.1840
      7 O         142.0595  139.2970  160.0193 O.2     1  UNL1       -0.2905
      8 C         142.9049  138.5698  157.5900 C.ar    1  UNL1        0.0364
      9 C         142.2360  137.2539  157.3240 C.ar    1  UNL1       -0.0000
     10 C         142.4821  136.5354  156.0305 C.ar    1  UNL1       -0.0060
     11 C         143.3972  137.1329  155.0030 C.ar    1  UNL1       -0.0029
     12 C         144.0662  138.4488  155.2691 C.ar    1  UNL1        0.0011
     13 C         143.8200  139.1673  156.5626 C.ar    1  UNL1        0.0188
     14 C         142.6604  143.4790  162.2063 C.ar    1  UNL1        0.0710
     15 C         142.5339  142.8972  160.8296 C.ar    1  UNL1        0.0165
     16 C         143.9127  142.5768  160.3332 C.ar    1  UNL1        0.0237
     17 C         144.8914  142.9607  161.4032 C.ar    1  UNL1        0.0373
     18 S         144.1174  143.5183  162.5609 S.2     1  UNL1       -0.0780
     19 C         140.3970  144.4021  163.9453 C.1     1  UNL1       -0.0534
     20 C         141.5286  143.9406  163.0758 C.1     1  UNL1       -0.0554
     21 C         139.2652  144.8638  164.8149 C.3     1  UNL1        0.2182
     22 O         137.8882  144.3039  164.6139 O.3     1  UNL1       -0.3374
     23 C         137.5096  143.6994  163.2943 C.3     1  UNL1        0.1755
     24 C         137.6427  142.2206  163.0810 C.3     1  UNL1        0.1743
     25 C         138.2213  140.3674  164.8075 C.3     1  UNL1        0.1742
     26 O         138.6623  141.4397  163.8559 O.3     1  UNL1       -0.3484
     27 C         141.8132  135.2194  155.7644 C.3     1  UNL1        0.0992
     28 N         142.4683  133.9431  156.2022 N.3     1  UNL1       -0.2665
     29 C         141.9137  132.6233  155.7540 C.3     1  UNL1        0.0899
     30 C         142.5687  131.3469  156.1919 C.3     1  UNL1        0.0897
     31 N         143.7784  131.3903  157.0779 N.3     1  UNL1       -0.2691
     32 C         144.4335  130.1139  157.5157 C.3     1  UNL1        0.0897
     33 C         144.3329  132.7100  157.5260 C.3     1  UNL1        0.0897
     34 C         143.6779  133.9864  157.0881 C.3     1  UNL1        0.0899
@<TRIPOS>BOND
     1    25    26    1
     2    26    24    1
     3    24    23    1
     4    23    22    1
     5    22    21    1
     6    21    19    1
     7    19    20    3
     8    20    14    1
     9    14    15   ar
    10    15    16   ar
    11    16     1    1
    12     1     2    2
    13     2     3    1
    14     3     4    2
    15     4     5    1
    16     5     6    1
    17     6     7    2
    18     6     8    1
    19     8     9   ar
    20     9    10   ar
    21    10    27    1
    22    27    28    1
    23    28    29    1
    24    29    30    1
    25    30    31    1
    26    31    32    1
    27    31    33    1
    28    33    34    1
    29    10    11   ar
    30    11    12   ar
    31    12    13   ar
    32    16    17   ar
    33    17    18   ar
    34    18    14   ar
    35     5     1    1
    36    13     8   ar
    37    13     4    1
    38    34    28    1
