@<TRIPOS>MOLECULE
*****
 35 38 0 0 0
SMALL
GASTEIGER

@<TRIPOS>ATOM
      1 N         138.7124  140.2458  165.7346 N.3     1  UNL1       -0.2691
      2 C         137.8761  140.8911  164.6696 C.3     1  UNL1        0.0724
      3 C         138.1691  142.2964  164.2348 C.3     1  UNL1        0.0188
      4 C         139.2983  143.0565  164.8650 C.3     1  UNL1        0.0188
      5 C         140.1345  142.4113  165.9300 C.3     1  UNL1        0.0188
      6 C         139.8416  141.0059  166.3648 C.3     1  UNL1        0.0724
      7 C         138.4194  138.8404  166.1695 C.3     1  UNL1        0.0988
      8 C         137.7574  138.5869  167.4914 C.2     1  UNL1        0.0652
      9 O         136.6174  137.6166  167.5855 O.co2   1  UNL1       -0.5478
     10 O         138.2355  139.3037  168.7193 O.co2   1  UNL1       -0.5478
     11 C         138.7885  137.6885  165.2824 C.3     1  UNL1        0.0511
     12 C         139.6808  137.8509  162.8478 C.ar    1  UNL1        0.1347
     13 C         140.8288  137.9790  161.8908 C.ar    1  UNL1        0.0366
     14 C         142.2323  138.0729  162.4115 C.ar    1  UNL1        0.0031
     15 C         142.4880  138.0387  163.8891 C.ar    1  UNL1       -0.0001
     16 C         141.3401  137.9105  164.8461 C.ar    1  UNL1       -0.0012
     17 C         139.9364  137.8166  164.3254 C.ar    1  UNL1        0.0135
     18 C         137.7188  138.8567  161.4733 C.3     1  UNL1        0.2525
     19 O         138.2772  137.7570  162.3271 O.3     1  UNL1       -0.4717
     20 C         139.5912  144.4620  164.4301 C.3     1  UNL1        0.0721
     21 N         140.1322  144.7244  163.0559 N.3     1  UNL1       -0.2724
     22 C         141.2945  143.9273  162.5426 C.3     1  UNL1        0.0758
     23 C         141.8355  144.1898  161.1684 C.3     1  UNL1        0.0609
     24 C         141.2142  145.2494  160.3075 C.3     1  UNL1        0.1687
     25 C         140.0519  146.0466  160.8208 C.3     1  UNL1        0.0609
     26 C         139.5108  145.7841  162.1950 C.3     1  UNL1        0.0758
     27 O         141.7552  145.5119  158.9333 O.3     1  UNL1       -0.4790
     28 C         140.9189  145.2046  157.7267 C.ar    1  UNL1        0.1393
     29 C         140.0908  146.2833  157.0935 C.ar    1  UNL1        0.0378
     30 C         139.2545  145.9760  155.8869 C.ar    1  UNL1        0.0154
     31 C         139.2461  144.5900  155.3133 C.ar    1  UNL1        0.0684
     32 CL        138.4098  144.2826  154.1067 Cl      1  UNL1       -0.0814
     33 C         140.0741  143.5113  155.9465 C.ar    1  UNL1        0.0712
     34 CL        140.0657  142.1253  155.3729 Cl      1  UNL1       -0.0813
     35 C         140.9105  143.8186  157.1532 C.ar    1  UNL1        0.0491
@<TRIPOS>UNITY_ATOM_ATTR
9 1
charge -1
@<TRIPOS>BOND
     1    18    19    1
     2    19    12    1
     3    12    13   ar
     4    13    14   ar
     5    14    15   ar
     6    15    16   ar
     7    16    17   ar
     8    17    11    1
     9     7    11    1
    10     7     8    1
    11     8     9   ar
    12     8    10   ar
    13     7     1    1
    14     1     2    1
    15     2     3    1
    16     3     4    1
    17     4    20    1
    18    20    21    1
    19    21    22    1
    20    22    23    1
    21    23    24    1
    22    24    27    1
    23    27    28    1
    24    28    29   ar
    25    29    30   ar
    26    30    31   ar
    27    31    32    1
    28    31    33   ar
    29    33    34    1
    30    33    35   ar
    31    24    25    1
    32    25    26    1
    33     4     5    1
    34     5     6    1
    35    17    12   ar
    36     6     1    1
    37    26    21    1
    38    35    28   ar
@<TRIPOS>MOLECULE
*****
 35 38 0 0 0
SMALL
GASTEIGER

@<TRIPOS>ATOM
      1 N         140.2293  139.5601  164.0211 N.3     1  UNL1       -0.2691
      2 C         139.8698  138.2631  163.3591 C.3     1  UNL1        0.0724
      3 C         139.6168  138.2203  161.8812 C.3     1  UNL1        0.0188
      4 C         139.7233  139.4745  161.0654 C.3     1  UNL1        0.0188
      5 C         140.0828  140.7716  161.7275 C.3     1  UNL1        0.0188
      6 C         140.3358  140.8144  163.2053 C.3     1  UNL1        0.0724
      7 C         140.4824  139.6030  165.4991 C.3     1  UNL1        0.0988
      8 C         139.3309  139.7090  166.4544 C.2     1  UNL1        0.0652
      9 O         139.5526  140.2373  167.8407 O.co2   1  UNL1       -0.5478
     10 O         137.9575  139.2868  166.0235 O.co2   1  UNL1       -0.5478
     11 C         141.8870  139.5397  166.0216 C.3     1  UNL1        0.0511
     12 C         143.8939  140.1502  164.4888 C.ar    1  UNL1        0.1347
     13 C         144.9144  141.1442  164.0190 C.ar    1  UNL1        0.0366
     14 C         144.9484  142.5215  164.6120 C.ar    1  UNL1        0.0031
     15 C         143.9619  142.9049  165.6750 C.ar    1  UNL1       -0.0001
     16 C         142.9415  141.9110  166.1448 C.ar    1  UNL1       -0.0012
     17 C         142.9075  140.5336  165.5517 C.ar    1  UNL1        0.0135
     18 C         143.4451  138.5816  162.4670 C.3     1  UNL1        0.2525
     19 O         143.8600  138.7729  163.8957 O.3     1  UNL1       -0.4717
     20 C         139.4702  139.4317  159.5875 C.3     1  UNL1        0.0721
     21 N         140.3424  138.5927  158.7013 N.3     1  UNL1       -0.2724
     22 C         139.7690  137.9561  157.4701 C.3     1  UNL1        0.0758
     23 C         140.6412  137.1172  156.5839 C.3     1  UNL1        0.0609
     24 C         142.0869  136.9148  156.9288 C.3     1  UNL1        0.1687
     25 C         142.6604  137.5514  158.1601 C.3     1  UNL1        0.0609
     26 C         141.7882  138.3904  159.0463 C.3     1  UNL1        0.0758
     27 O         142.9591  136.0759  156.0426 O.3     1  UNL1       -0.4790
     28 C         142.9561  134.5826  156.1838 C.ar    1  UNL1        0.1393
     29 C         141.9037  133.7661  155.4940 C.ar    1  UNL1        0.0378
     30 C         141.9006  132.2728  155.6352 C.ar    1  UNL1        0.0154
     31 C         142.9500  131.5959  156.4663 C.ar    1  UNL1        0.0684
     32 CL        142.9470  130.1026  156.6075 Cl      1  UNL1       -0.0814
     33 C         144.0024  132.4123  157.1561 C.ar    1  UNL1        0.0712
     34 CL        145.0517  131.7354  157.9872 Cl      1  UNL1       -0.0813
     35 C         144.0054  133.9057  157.0149 C.ar    1  UNL1        0.0491
@<TRIPOS>UNITY_ATOM_ATTR
9 1
charge -1
@<TRIPOS>BOND
     1    18    19    1
     2    19    12    1
     3    12    13   ar
     4    13    14   ar
     5    14    15   ar
     6    15    16   ar
     7    16    17   ar
     8    17    11    1
     9     7    11    1
    10     7     8    1
    11     8     9   ar
    12     8    10   ar
    13     7     1    1
    14     1     2    1
    15     2     3    1
    16     3     4    1
    17     4    20    1
    18    20    21    1
    19    21    22    1
    20    22    23    1
    21    23    24    1
    22    24    27    1
    23    27    28    1
    24    28    29   ar
    25    29    30   ar
    26    30    31   ar
    27    31    32    1
    28    31    33   ar
    29    33    34    1
    30    33    35   ar
    31    24    25    1
    32    25    26    1
    33     4     5    1
    34     5     6    1
    35    17    12   ar
    36     6     1    1
    37    26    21    1
    38    35    28   ar
@<TRIPOS>MOLECULE
*****
 35 38 0 0 0
SMALL
GASTEIGER

@<TRIPOS>ATOM
      1 N         140.0740  142.3445  159.1748 N.3     1  UNL1       -0.2691
      2 C         140.9759  141.2082  159.5561 C.3     1  UNL1        0.0724
      3 C         140.4410  140.0662  160.3683 C.3     1  UNL1        0.0188
      4 C         139.0042  140.0605  160.7992 C.3     1  UNL1        0.0188
      5 C         138.1024  141.1968  160.4179 C.3     1  UNL1        0.0188
      6 C         138.6372  142.3388  159.6057 C.3     1  UNL1        0.0724
      7 C         140.6089  143.4866  158.3626 C.3     1  UNL1        0.0988
      8 C         140.3809  143.5244  156.8805 C.2     1  UNL1        0.0652
      9 O         140.3869  144.8367  156.1540 O.co2   1  UNL1       -0.5478
     10 O         140.1470  142.2499  156.1249 O.co2   1  UNL1       -0.5478
     11 C         141.3717  144.5908  159.0325 C.3     1  UNL1        0.0511
     12 C         142.3938  144.2917  161.4023 C.ar    1  UNL1        0.1347
     13 C         142.3024  144.4720  162.8886 C.ar    1  UNL1        0.0366
     14 C         141.0975  145.1315  163.4914 C.ar    1  UNL1        0.0031
     15 C         139.9841  145.6108  162.6080 C.ar    1  UNL1       -0.0001
     16 C         140.0755  145.4305  161.1217 C.ar    1  UNL1       -0.0012
     17 C         141.2803  144.7710  160.5188 C.ar    1  UNL1        0.0135
     18 C         144.3252  142.5610  161.5574 C.3     1  UNL1        0.2525
     19 O         143.5986  143.6323  160.7994 O.3     1  UNL1       -0.4717
     20 C         138.4694  138.9184  161.6114 C.3     1  UNL1        0.0721
     21 N         138.5260  138.9722  163.1094 N.3     1  UNL1       -0.2724
     22 C         138.0861  140.2105  163.8325 C.3     1  UNL1        0.0758
     23 C         138.1427  140.2643  165.3305 C.3     1  UNL1        0.0609
     24 C         138.6392  139.0797  166.1053 C.3     1  UNL1        0.1687
     25 C         139.0791  137.8413  165.3821 C.3     1  UNL1        0.0609
     26 C         139.0225  137.7876  163.8842 C.3     1  UNL1        0.0758
     27 O         138.6958  139.1335  167.6033 O.3     1  UNL1       -0.4790
     28 C         139.5862  140.1298  168.2849 C.ar    1  UNL1        0.1393
     29 C         139.2284  140.6470  169.6468 C.ar    1  UNL1        0.0378
     30 C         140.1188  141.6433  170.3284 C.ar    1  UNL1        0.0154
     31 C         141.3669  142.1224  169.6482 C.ar    1  UNL1        0.0684
     32 CL        142.2573  143.1187  170.3298 Cl      1  UNL1       -0.0814
     33 C         141.7246  141.6053  168.2864 C.ar    1  UNL1        0.0712
     34 CL        142.9727  142.0845  167.6061 Cl      1  UNL1       -0.0813
     35 C         140.8342  140.6090  167.6047 C.ar    1  UNL1        0.0491
@<TRIPOS>UNITY_ATOM_ATTR
9 1
charge -1
@<TRIPOS>BOND
     1    18    19    1
     2    19    12    1
     3    12    13   ar
     4    13    14   ar
     5    14    15   ar
     6    15    16   ar
     7    16    17   ar
     8    17    11    1
     9     7    11    1
    10     7     8    1
    11     8     9   ar
    12     8    10   ar
    13     7     1    1
    14     1     2    1
    15     2     3    1
    16     3     4    1
    17     4    20    1
    18    20    21    1
    19    21    22    1
    20    22    23    1
    21    23    24    1
    22    24    27    1
    23    27    28    1
    24    28    29   ar
    25    29    30   ar
    26    30    31   ar
    27    31    32    1
    28    31    33   ar
    29    33    34    1
    30    33    35   ar
    31    24    25    1
    32    25    26    1
    33     4     5    1
    34     5     6    1
    35    17    12   ar
    36     6     1    1
    37    26    21    1
    38    35    28   ar
@<TRIPOS>MOLECULE
*****
 35 38 0 0 0
SMALL
GASTEIGER

@<TRIPOS>ATOM
      1 N         140.6785  139.7415  166.7975 N.3     1  UNL1       -0.2691
      2 C         139.1981  139.7801  166.5594 C.3     1  UNL1        0.0724
      3 C         138.6106  139.0746  165.3732 C.3     1  UNL1        0.0188
      4 C         139.5036  138.3306  164.4251 C.3     1  UNL1        0.0188
      5 C         140.9841  138.2920  164.6632 C.3     1  UNL1        0.0188
      6 C         141.5715  138.9975  165.8494 C.3     1  UNL1        0.0724
      7 C         141.2661  140.4470  167.9838 C.3     1  UNL1        0.0988
      8 C         141.5486  139.6858  169.2449 C.2     1  UNL1        0.0652
      9 O         142.9205  139.1334  169.4962 O.co2   1  UNL1       -0.5478
     10 O         140.4595  139.4769  170.2549 O.co2   1  UNL1       -0.5478
     11 C         141.5710  141.9138  167.9088 C.3     1  UNL1        0.0511
     12 C         141.1500  143.1047  165.6385 C.ar    1  UNL1        0.1347
     13 C         141.6767  143.6972  164.3650 C.ar    1  UNL1        0.0366
     14 C         143.1510  143.6911  164.0885 C.ar    1  UNL1        0.0031
     15 C         144.0986  143.0926  165.0854 C.ar    1  UNL1       -0.0001
     16 C         143.5719  142.5001  166.3588 C.ar    1  UNL1       -0.0012
     17 C         142.0976  142.5062  166.6354 C.ar    1  UNL1        0.0135
     18 C         138.7169  143.5790  164.8608 C.3     1  UNL1        0.2525
     19 O         139.6758  143.1108  165.9150 O.3     1  UNL1       -0.4717
     20 C         138.9161  137.6251  163.2388 C.3     1  UNL1        0.0721
     21 N         138.8466  138.3203  161.9114 N.3     1  UNL1       -0.2724
     22 C         137.6716  139.1927  161.5824 C.3     1  UNL1        0.0758
     23 C         137.6021  139.8879  160.2550 C.3     1  UNL1        0.0609
     24 C         138.7075  139.7106  159.2567 C.3     1  UNL1        0.1687
     25 C         139.8825  138.8382  159.5858 C.3     1  UNL1        0.0609
     26 C         139.9521  138.1430  160.9131 C.3     1  UNL1        0.0758
     27 O         138.6380  140.4058  157.9294 O.3     1  UNL1       -0.4790
     28 C         139.0928  141.8296  157.8037 C.ar    1  UNL1        0.1393
     29 C         138.7987  142.6033  156.5527 C.ar    1  UNL1        0.0378
     30 C         139.2535  144.0271  156.4270 C.ar    1  UNL1        0.0154
     31 C         140.0025  144.6773  157.5523 C.ar    1  UNL1        0.0684
     32 CL        140.4573  146.1011  157.4266 Cl      1  UNL1       -0.0814
     33 C         140.2966  143.9037  158.8033 C.ar    1  UNL1        0.0712
     34 CL        141.0456  144.5539  159.9286 Cl      1  UNL1       -0.0813
     35 C         139.8418  142.4798  158.9290 C.ar    1  UNL1        0.0491
@<TRIPOS>UNITY_ATOM_ATTR
9 1
charge -1
@<TRIPOS>BOND
     1    18    19    1
     2    19    12    1
     3    12    13   ar
     4    13    14   ar
     5    14    15   ar
     6    15    16   ar
     7    16    17   ar
     8    17    11    1
     9     7    11    1
    10     7     8    1
    11     8     9   ar
    12     8    10   ar
    13     7     1    1
    14     1     2    1
    15     2     3    1
    16     3     4    1
    17     4    20    1
    18    20    21    1
    19    21    22    1
    20    22    23    1
    21    23    24    1
    22    24    27    1
    23    27    28    1
    24    28    29   ar
    25    29    30   ar
    26    30    31   ar
    27    31    32    1
    28    31    33   ar
    29    33    34    1
    30    33    35   ar
    31    24    25    1
    32    25    26    1
    33     4     5    1
    34     5     6    1
    35    17    12   ar
    36     6     1    1
    37    26    21    1
    38    35    28   ar
@<TRIPOS>MOLECULE
*****
 35 38 0 0 0
SMALL
GASTEIGER

@<TRIPOS>ATOM
      1 N         139.9714  142.1457  161.8895 N.3     1  UNL1       -0.2691
      2 C         141.2508  141.6639  162.5066 C.3     1  UNL1        0.0724
      3 C         142.3943  141.2443  161.6312 C.3     1  UNL1        0.0188
      4 C         142.2584  141.3066  160.1387 C.3     1  UNL1        0.0188
      5 C         140.9790  141.7884  159.5215 C.3     1  UNL1        0.0188
      6 C         139.8355  142.2080  160.3969 C.3     1  UNL1        0.0724
      7 C         138.8278  142.5652  162.7649 C.3     1  UNL1        0.0988
      8 C         138.7431  143.9778  163.2624 C.2     1  UNL1        0.0652
      9 O         139.3059  144.3347  164.6063 O.co2   1  UNL1       -0.5478
     10 O         138.0956  145.0335  162.4160 O.co2   1  UNL1       -0.5478
     11 C         137.7689  141.5722  163.1427 C.3     1  UNL1        0.0511
     12 C         138.4784  139.0785  162.9761 C.ar    1  UNL1        0.1347
     13 C         138.8618  137.7897  163.6411 C.ar    1  UNL1        0.0366
     14 C         138.9192  137.7061  165.1377 C.ar    1  UNL1        0.0031
     15 C         138.5931  138.9111  165.9692 C.ar    1  UNL1       -0.0001
     16 C         138.2097  140.1998  165.3043 C.ar    1  UNL1       -0.0012
     17 C         138.1523  140.2835  163.8077 C.ar    1  UNL1        0.0135
     18 C         139.3263  138.3051  160.6452 C.3     1  UNL1        0.2525
     19 O         138.4211  139.1621  161.4796 O.3     1  UNL1       -0.4717
     20 C         143.4020  140.8871  159.2633 C.3     1  UNL1        0.0721
     21 N         143.2176  139.7803  158.2677 N.3     1  UNL1       -0.2724
     22 C         143.8309  139.8890  156.9032 C.3     1  UNL1        0.0758
     23 C         143.6466  138.7823  155.9077 C.3     1  UNL1        0.0609
     24 C         142.8488  137.5668  156.2766 C.3     1  UNL1        0.1687
     25 C         142.2354  137.4581  157.6412 C.3     1  UNL1        0.0609
     26 C         142.4198  138.5648  158.6367 C.3     1  UNL1        0.0758
     27 O         142.6644  136.4601  155.2811 O.3     1  UNL1       -0.4790
     28 C         142.7563  135.0299  155.7239 C.ar    1  UNL1        0.1393
     29 C         141.7590  134.0254  155.2272 C.ar    1  UNL1        0.0378
     30 C         141.8509  132.5953  155.6701 C.ar    1  UNL1        0.0154
     31 C         142.9400  132.1695  156.6096 C.ar    1  UNL1        0.0684
     32 CL        143.0318  130.7394  157.0524 Cl      1  UNL1       -0.0814
     33 C         143.9372  133.1739  157.1063 C.ar    1  UNL1        0.0712
     34 CL        145.0262  132.7482  158.0458 Cl      1  UNL1       -0.0813
     35 C         143.8453  134.6042  156.6634 C.ar    1  UNL1        0.0491
@<TRIPOS>UNITY_ATOM_ATTR
9 1
charge -1
@<TRIPOS>BOND
     1    18    19    1
     2    19    12    1
     3    12    13   ar
     4    13    14   ar
     5    14    15   ar
     6    15    16   ar
     7    16    17   ar
     8    17    11    1
     9     7    11    1
    10     7     8    1
    11     8     9   ar
    12     8    10   ar
    13     7     1    1
    14     1     2    1
    15     2     3    1
    16     3     4    1
    17     4    20    1
    18    20    21    1
    19    21    22    1
    20    22    23    1
    21    23    24    1
    22    24    27    1
    23    27    28    1
    24    28    29   ar
    25    29    30   ar
    26    30    31   ar
    27    31    32    1
    28    31    33   ar
    29    33    34    1
    30    33    35   ar
    31    24    25    1
    32    25    26    1
    33     4     5    1
    34     5     6    1
    35    17    12   ar
    36     6     1    1
    37    26    21    1
    38    35    28   ar
@<TRIPOS>MOLECULE
*****
 35 38 0 0 0
SMALL
GASTEIGER

@<TRIPOS>ATOM
      1 N         142.6041  141.0888  166.0215 N.3     1  UNL1       -0.2691
      2 C         141.2501  141.3147  165.4168 C.3     1  UNL1        0.0724
      3 C         140.9699  142.5761  164.6552 C.3     1  UNL1        0.0188
      4 C         142.0436  143.6118  164.4984 C.3     1  UNL1        0.0188
      5 C         143.3975  143.3860  165.1031 C.3     1  UNL1        0.0188
      6 C         143.6778  142.1245  165.8647 C.3     1  UNL1        0.0724
      7 C         142.8844  139.8273  166.7832 C.3     1  UNL1        0.0988
      8 C         143.4627  138.6373  166.0764 C.2     1  UNL1        0.0652
      9 O         144.3010  137.6499  166.8331 O.co2   1  UNL1       -0.5478
     10 O         143.2028  138.4347  164.6131 O.co2   1  UNL1       -0.5478
     11 C         142.5864  139.7558  168.2515 C.3     1  UNL1        0.0511
     12 C         140.3925  140.7969  169.1750 C.ar    1  UNL1        0.1347
     13 C         139.6753  141.9279  169.8507 C.ar    1  UNL1        0.0366
     14 C         140.4347  143.1486  170.2785 C.ar    1  UNL1        0.0031
     15 C         141.9113  143.2384  170.0307 C.ar    1  UNL1       -0.0001
     16 C         142.6286  142.1075  169.3551 C.ar    1  UNL1       -0.0012
     17 C         141.8692  140.8867  168.9272 C.ar    1  UNL1        0.0135
     18 C         138.8647  139.5841  167.4588 C.3     1  UNL1        0.2525
     19 O         139.6331  139.5762  168.7471 O.3     1  UNL1       -0.4717
     20 C         141.7632  144.8733  163.7367 C.3     1  UNL1        0.0721
     21 N         141.5314  144.8195  162.2557 N.3     1  UNL1       -0.2724
     22 C         142.4044  143.9594  161.3908 C.3     1  UNL1        0.0758
     23 C         142.1726  143.9056  159.9098 C.3     1  UNL1        0.0609
     24 C         141.0678  144.7117  159.2937 C.3     1  UNL1        0.1687
     25 C         140.1948  145.5718  160.1587 C.3     1  UNL1        0.0609
     26 C         140.4266  145.6257  161.6397 C.3     1  UNL1        0.0758
     27 O         140.8360  144.6578  157.8127 O.3     1  UNL1       -0.4790
     28 C         139.6059  143.9930  157.2698 C.ar    1  UNL1        0.1393
     29 C         139.0382  142.7879  157.9596 C.ar    1  UNL1        0.0378
     30 C         137.8082  142.1230  157.4167 C.ar    1  UNL1        0.0154
     31 C         137.1457  142.6631  156.1840 C.ar    1  UNL1        0.0684
     32 CL        135.9156  141.9982  155.6411 Cl      1  UNL1       -0.0814
     33 C         137.7132  143.8681  155.4943 C.ar    1  UNL1        0.0712
     34 CL        137.0507  144.4083  154.2617 Cl      1  UNL1       -0.0813
     35 C         138.9434  144.5331  156.0372 C.ar    1  UNL1        0.0491
@<TRIPOS>UNITY_ATOM_ATTR
9 1
charge -1
@<TRIPOS>BOND
     1    18    19    1
     2    19    12    1
     3    12    13   ar
     4    13    14   ar
     5    14    15   ar
     6    15    16   ar
     7    16    17   ar
     8    17    11    1
     9     7    11    1
    10     7     8    1
    11     8     9   ar
    12     8    10   ar
    13     7     1    1
    14     1     2    1
    15     2     3    1
    16     3     4    1
    17     4    20    1
    18    20    21    1
    19    21    22    1
    20    22    23    1
    21    23    24    1
    22    24    27    1
    23    27    28    1
    24    28    29   ar
    25    29    30   ar
    26    30    31   ar
    27    31    32    1
    28    31    33   ar
    29    33    34    1
    30    33    35   ar
    31    24    25    1
    32    25    26    1
    33     4     5    1
    34     5     6    1
    35    17    12   ar
    36     6     1    1
    37    26    21    1
    38    35    28   ar
@<TRIPOS>MOLECULE
*****
 35 38 0 0 0
SMALL
GASTEIGER

@<TRIPOS>ATOM
      1 N         140.1215  139.9593  166.8733 N.3     1  UNL1       -0.2691
      2 C         141.2974  139.1716  166.3765 C.3     1  UNL1        0.0724
      3 C         141.1543  138.2897  165.1717 C.3     1  UNL1        0.0188
      4 C         139.8353  138.1956  164.4635 C.3     1  UNL1        0.0188
      5 C         138.6594  138.9833  164.9602 C.3     1  UNL1        0.0188
      6 C         138.8025  139.8652  166.1651 C.3     1  UNL1        0.0724
      7 C         140.2646  140.8412  168.0782 C.3     1  UNL1        0.0988
      8 C         139.8838  140.3258  169.4344 C.2     1  UNL1        0.0652
      9 O         138.4981  139.8051  169.6770 O.co2   1  UNL1       -0.5478
     10 O         140.8886  140.3309  170.5480 O.co2   1  UNL1       -0.5478
     11 C         140.7884  142.2386  167.9269 C.3     1  UNL1        0.0511
     12 C         140.9544  143.2439  165.5370 C.ar    1  UNL1        0.1347
     13 C         141.7752  143.6113  164.3363 C.ar    1  UNL1        0.0366
     14 C         143.2505  143.3408  164.3251 C.ar    1  UNL1        0.0031
     15 C         143.9052  142.7029  165.5144 C.ar    1  UNL1       -0.0001
     16 C         143.0845  142.3355  166.7150 C.ar    1  UNL1       -0.0012
     17 C         141.6091  142.6060  166.7263 C.ar    1  UNL1        0.0135
     18 C         138.9431  144.7753  164.9375 C.3     1  UNL1        0.2525
     19 O         139.4791  143.5144  165.5482 O.3     1  UNL1       -0.4717
     20 C         139.6922  137.3136  163.2586 C.3     1  UNL1        0.0721
     21 N         140.2091  137.7728  161.9274 N.3     1  UNL1       -0.2724
     22 C         139.2492  138.1993  160.8567 C.3     1  UNL1        0.0758
     23 C         139.7661  138.6586  159.5255 C.3     1  UNL1        0.0609
     24 C         141.2429  138.6913  159.2652 C.3     1  UNL1        0.1687
     25 C         142.2030  138.2648  160.3359 C.3     1  UNL1        0.0609
     26 C         141.6861  137.8055  161.6671 C.3     1  UNL1        0.0758
     27 O         141.7598  139.1505  157.9340 O.3     1  UNL1       -0.4790
     28 C         141.8542  138.1829  156.7917 C.ar    1  UNL1        0.1393
     29 C         140.9519  138.3355  155.6031 C.ar    1  UNL1        0.0378
     30 C         141.0462  137.3680  154.4608 C.ar    1  UNL1        0.0154
     31 C         142.0427  136.2478  154.5070 C.ar    1  UNL1        0.0684
     32 CL        142.1370  135.2803  153.3647 Cl      1  UNL1       -0.0814
     33 C         142.9449  136.0952  155.6955 C.ar    1  UNL1        0.0712
     34 CL        143.9415  134.9750  155.7418 Cl      1  UNL1       -0.0813
     35 C         142.8507  137.0628  156.8379 C.ar    1  UNL1        0.0491
@<TRIPOS>UNITY_ATOM_ATTR
9 1
charge -1
@<TRIPOS>BOND
     1    18    19    1
     2    19    12    1
     3    12    13   ar
     4    13    14   ar
     5    14    15   ar
     6    15    16   ar
     7    16    17   ar
     8    17    11    1
     9     7    11    1
    10     7     8    1
    11     8     9   ar
    12     8    10   ar
    13     7     1    1
    14     1     2    1
    15     2     3    1
    16     3     4    1
    17     4    20    1
    18    20    21    1
    19    21    22    1
    20    22    23    1
    21    23    24    1
    22    24    27    1
    23    27    28    1
    24    28    29   ar
    25    29    30   ar
    26    30    31   ar
    27    31    32    1
    28    31    33   ar
    29    33    34    1
    30    33    35   ar
    31    24    25    1
    32    25    26    1
    33     4     5    1
    34     5     6    1
    35    17    12   ar
    36     6     1    1
    37    26    21    1
    38    35    28   ar
@<TRIPOS>MOLECULE
*****
 35 38 0 0 0
SMALL
GASTEIGER

@<TRIPOS>ATOM
      1 N         141.8169  140.9520  166.5823 N.3     1  UNL1       -0.2691
      2 C         142.6073  142.0692  165.9683 C.3     1  UNL1        0.0724
      3 C         141.9046  143.1580  165.2128 C.3     1  UNL1        0.0188
      4 C         140.4116  143.1295  165.0713 C.3     1  UNL1        0.0188
      5 C         139.6212  142.0123  165.6853 C.3     1  UNL1        0.0188
      6 C         140.3239  140.9235  166.4408 C.3     1  UNL1        0.0724
      7 C         142.5196  139.8631  167.3378 C.3     1  UNL1        0.0988
      8 C         142.5096  139.8642  168.8378 C.2     1  UNL1        0.0652
      9 O         142.9490  138.6441  169.5916 O.co2   1  UNL1       -0.5478
     10 O         142.0601  141.0854  169.5839 O.co2   1  UNL1       -0.5478
     11 C         143.2322  138.7732  166.5934 C.3     1  UNL1        0.0511
     12 C         143.7633  138.9078  164.0537 C.ar    1  UNL1        0.1347
     13 C         143.3941  138.6055  162.6316 C.ar    1  UNL1        0.0366
     14 C         142.1247  137.8666  162.3270 C.ar    1  UNL1        0.0031
     15 C         141.2246  137.4299  163.4446 C.ar    1  UNL1       -0.0001
     16 C         141.5937  137.7321  164.8667 C.ar    1  UNL1       -0.0012
     17 C         142.8631  138.4711  165.1713 C.ar    1  UNL1        0.0135
     18 C         145.3260  140.9479  163.6722 C.3     1  UNL1        0.2525
     19 O         145.0326  139.6467  164.3582 O.3     1  UNL1       -0.4717
     20 C         139.7089  144.2183  164.3158 C.3     1  UNL1        0.0721
     21 N         139.8132  144.2815  162.8208 N.3     1  UNL1       -0.2724
     22 C         139.4184  143.0962  161.9907 C.3     1  UNL1        0.0758
     23 C         139.5227  143.1593  160.4956 C.3     1  UNL1        0.0609
     24 C         140.0218  144.4077  159.8307 C.3     1  UNL1        0.1687
     25 C         140.4167  145.5931  160.6608 C.3     1  UNL1        0.0609
     26 C         140.3124  145.5300  162.1558 C.3     1  UNL1        0.0758
     27 O         140.1261  144.4709  158.3356 O.3     1  UNL1       -0.4790
     28 C         141.3370  143.9179  157.6443 C.ar    1  UNL1        0.1393
     29 C         141.3557  143.7933  156.1495 C.ar    1  UNL1        0.0378
     30 C         142.5666  143.2403  155.4582 C.ar    1  UNL1        0.0154
     31 C         143.7587  142.8118  156.2615 C.ar    1  UNL1        0.0684
     32 CL        144.9695  142.2588  155.5701 Cl      1  UNL1       -0.0814
     33 C         143.7399  142.9363  157.7561 C.ar    1  UNL1        0.0712
     34 CL        144.9320  142.5078  158.5595 Cl      1  UNL1       -0.0813
     35 C         142.5290  143.4894  158.4476 C.ar    1  UNL1        0.0491
@<TRIPOS>UNITY_ATOM_ATTR
9 1
charge -1
@<TRIPOS>BOND
     1    18    19    1
     2    19    12    1
     3    12    13   ar
     4    13    14   ar
     5    14    15   ar
     6    15    16   ar
     7    16    17   ar
     8    17    11    1
     9     7    11    1
    10     7     8    1
    11     8     9   ar
    12     8    10   ar
    13     7     1    1
    14     1     2    1
    15     2     3    1
    16     3     4    1
    17     4    20    1
    18    20    21    1
    19    21    22    1
    20    22    23    1
    21    23    24    1
    22    24    27    1
    23    27    28    1
    24    28    29   ar
    25    29    30   ar
    26    30    31   ar
    27    31    32    1
    28    31    33   ar
    29    33    34    1
    30    33    35   ar
    31    24    25    1
    32    25    26    1
    33     4     5    1
    34     5     6    1
    35    17    12   ar
    36     6     1    1
    37    26    21    1
    38    35    28   ar
@<TRIPOS>MOLECULE
*****
 35 38 0 0 0
SMALL
GASTEIGER

@<TRIPOS>ATOM
      1 N         139.9965  142.1071  166.6772 N.3     1  UNL1       -0.2691
      2 C         139.3478  140.7899  166.3704 C.3     1  UNL1        0.0724
      3 C         138.4152  140.6674  165.2019 C.3     1  UNL1        0.0188
      4 C         138.1313  141.8620  164.3404 C.3     1  UNL1        0.0188
      5 C         138.7800  143.1792  164.6473 C.3     1  UNL1        0.0188
      6 C         139.7126  143.3017  165.8157 C.3     1  UNL1        0.0724
      7 C         140.9291  142.2297  167.8457 C.3     1  UNL1        0.0988
      8 C         140.3970  142.6220  169.1921 C.2     1  UNL1        0.0652
      9 O         140.6726  143.9920  169.7374 O.co2   1  UNL1       -0.5478
     10 O         139.5893  141.6444  169.9933 O.co2   1  UNL1       -0.5478
     11 C         142.3939  141.9599  167.6677 C.3     1  UNL1        0.0511
     12 C         143.2948  141.3921  165.2979 C.ar    1  UNL1        0.1347
     13 C         143.7540  140.3795  164.2909 C.ar    1  UNL1        0.0366
     14 C         143.7715  138.9225  164.6467 C.ar    1  UNL1        0.0031
     15 C         143.3297  138.4779  166.0095 C.ar    1  UNL1       -0.0001
     16 C         142.8706  139.4903  167.0165 C.ar    1  UNL1       -0.0012
     17 C         142.8531  140.9475  166.6607 C.ar    1  UNL1        0.0135
     18 C         144.2772  143.3949  163.9662 C.3     1  UNL1        0.2525
     19 O         143.2773  142.8491  164.9421 O.3     1  UNL1       -0.4717
     20 C         137.1987  141.7394  163.1719 C.3     1  UNL1        0.0721
     21 N         137.7431  141.4453  161.8055 N.3     1  UNL1       -0.2724
     22 C         138.3229  142.5517  160.9751 C.3     1  UNL1        0.0758
     23 C         138.8673  142.2576  159.6086 C.3     1  UNL1        0.0609
     24 C         138.8318  140.8572  159.0726 C.3     1  UNL1        0.1687
     25 C         138.2520  139.7507  159.9031 C.3     1  UNL1        0.0609
     26 C         137.7076  140.0448  161.2695 C.3     1  UNL1        0.0758
     27 O         139.3762  140.5631  157.7062 O.3     1  UNL1       -0.4790
     28 C         140.3009  139.3999  157.5016 C.ar    1  UNL1        0.1393
     29 C         141.5919  139.3253  158.2619 C.ar    1  UNL1        0.0378
     30 C         142.5166  138.1622  158.0573 C.ar    1  UNL1        0.0154
     31 C         142.1505  137.0736  157.0925 C.ar    1  UNL1        0.0684
     32 CL        143.0752  135.9104  156.8879 Cl      1  UNL1       -0.0814
     33 C         140.8596  137.1481  156.3322 C.ar    1  UNL1        0.0712
     34 CL        140.4935  136.0595  155.3674 Cl      1  UNL1       -0.0813
     35 C         139.9348  138.3113  156.5368 C.ar    1  UNL1        0.0491
@<TRIPOS>UNITY_ATOM_ATTR
9 1
charge -1
@<TRIPOS>BOND
     1    18    19    1
     2    19    12    1
     3    12    13   ar
     4    13    14   ar
     5    14    15   ar
     6    15    16   ar
     7    16    17   ar
     8    17    11    1
     9     7    11    1
    10     7     8    1
    11     8     9   ar
    12     8    10   ar
    13     7     1    1
    14     1     2    1
    15     2     3    1
    16     3     4    1
    17     4    20    1
    18    20    21    1
    19    21    22    1
    20    22    23    1
    21    23    24    1
    22    24    27    1
    23    27    28    1
    24    28    29   ar
    25    29    30   ar
    26    30    31   ar
    27    31    32    1
    28    31    33   ar
    29    33    34    1
    30    33    35   ar
    31    24    25    1
    32    25    26    1
    33     4     5    1
    34     5     6    1
    35    17    12   ar
    36     6     1    1
    37    26    21    1
    38    35    28   ar
