@<TRIPOS>MOLECULE
*****
 30 34 0 0 0
SMALL
GASTEIGER

@<TRIPOS>ATOM
      1 O         143.2340  139.6812  156.1291 O.2     1  UNL1       -0.2258
      2 C         143.0598  139.1194  157.5090 C.2     1  UNL1        0.4097
      3 O         143.1473  139.8907  158.7926 O.3     1  UNL1       -0.4398
      4 C         142.9092  138.9356  159.9245 C.3     1  UNL1        0.1561
      5 C         143.1607  140.3484  160.3610 C.3     1  UNL1        0.0425
      6 C         143.1577  140.6942  161.8206 C.3     1  UNL1        0.0160
      7 C         142.9032  139.6271  162.8436 C.3     1  UNL1        0.1122
      8 C         142.6517  138.2143  162.4071 C.3     1  UNL1        0.0160
      9 C         142.6547  137.8685  160.9475 C.3     1  UNL1        0.0425
     10 C         142.6746  137.5740  159.3404 C.3     1  UNL1        0.1429
     11 N         142.7677  137.6875  157.8476 N.am    1  UNL1       -0.2061
     12 C         142.9002  139.9730  164.3032 C.2     1  UNL1        0.3506
     13 N         143.1750  141.3261  164.8893 N.2     1  UNL1       -0.0351
     14 C         143.0665  141.2157  166.3813 C.2     1  UNL1        0.2317
     15 C         143.2349  142.2259  167.4773 C.2     1  UNL1        0.0537
     16 C         143.0614  141.8146  168.9094 C.2     1  UNL1        0.0714
     17 C         142.7196  140.3933  169.2454 C.2     1  UNL1       -0.0133
     18 C         142.5512  139.3831  168.1494 C.3     1  UNL1        0.1037
     19 C         142.7247  139.7943  166.7174 C.2     1  UNL1        0.2174
     20 N         142.6219  139.0263  165.4330 N.2     1  UNL1       -0.0389
     21 C         143.2297  142.8248  170.0055 C.3     1  UNL1        0.4184
     22 F         143.3980  143.8349  171.1015 F       1  UNL1       -0.1659
     23 F         144.7011  142.5362  170.0454 F       1  UNL1       -0.1659
     24 F         141.7582  143.1133  169.9655 F       1  UNL1       -0.1659
     25 C         142.5984  136.5663  156.8659 C.ar    1  UNL1        0.1400
     26 C         141.3245  136.4399  156.0840 C.ar    1  UNL1        0.0348
     27 C         141.1552  135.3186  155.1022 C.ar    1  UNL1        0.0045
     28 C         142.2598  134.3236  154.9022 C.ar    1  UNL1        0.0208
     29 C         143.5337  134.4499  155.6841 C.ar    1  UNL1        0.1003
     30 N         143.7029  135.5713  156.6659 N.ar    1  UNL1       -0.2287
@<TRIPOS>BOND
     1     1     2    2
     2     2     3    1
     3     3     4    1
     4     4     5    1
     5     5     6    1
     6     6     7    1
     7     7    12    1
     8    12    13    2
     9    13    14    1
    10    14    15    2
    11    15    16    1
    12    16    21    1
    13    21    22    1
    14    21    23    1
    15    21    24    1
    16    16    17    2
    17    17    18    1
    18    18    19    1
    19    19    20    2
    20     7     8    1
    21     8     9    1
    22     4    10    1
    23    10    11    1
    24    11    25    1
    25    25    26   ar
    26    26    27   ar
    27    27    28   ar
    28    28    29   ar
    29    29    30   ar
    30    11     2   am
    31    30    25   ar
    32     9     4    1
    33    20    12    1
    34    19    14    1
@<TRIPOS>MOLECULE
*****
 30 34 0 0 0
SMALL
GASTEIGER

@<TRIPOS>ATOM
      1 O         138.7055  143.3850  155.5240 O.2     1  UNL1       -0.2258
      2 C         139.2758  143.9639  156.7848 C.2     1  UNL1        0.4097
      3 O         139.4225  143.2493  158.0956 O.3     1  UNL1       -0.4398
      4 C         140.0369  144.2028  159.0771 C.3     1  UNL1        0.1561
      5 C         139.7455  142.8456  159.6455 C.3     1  UNL1        0.0425
      6 C         140.0699  142.5476  161.0794 C.3     1  UNL1        0.0160
      7 C         140.6857  143.6068  161.9448 C.3     1  UNL1        0.1122
      8 C         140.9771  144.9640  161.3764 C.3     1  UNL1        0.0160
      9 C         140.6527  145.2620  159.9425 C.3     1  UNL1        0.0425
     10 C         140.2700  145.5067  158.3730 C.3     1  UNL1        0.1429
     11 N         139.7997  145.3590  156.9563 N.am    1  UNL1       -0.2061
     12 C         141.0100  143.3087  163.3787 C.2     1  UNL1        0.3506
     13 N         140.0545  143.3827  164.5326 N.2     1  UNL1       -0.0351
     14 C         140.8008  143.0041  165.7774 C.2     1  UNL1        0.2317
     15 C         140.3734  142.8999  167.2115 C.2     1  UNL1        0.0537
     16 C         141.3627  142.4878  168.2609 C.2     1  UNL1        0.0714
     17 C         142.7795  142.1798  167.8764 C.2     1  UNL1       -0.0133
     18 C         143.2069  142.2840  166.4424 C.3     1  UNL1        0.1037
     19 C         142.2177  142.6961  165.3929 C.2     1  UNL1        0.2174
     20 N         142.3469  142.8844  163.9104 N.2     1  UNL1       -0.0389
     21 C         140.9353  142.3837  169.6950 C.3     1  UNL1        0.4184
     22 F         140.5078  142.2795  171.1290 F       1  UNL1       -0.1659
     23 F         141.8233  143.5412  170.0437 F       1  UNL1       -0.1659
     24 F         140.0473  141.2261  169.3462 F       1  UNL1       -0.1659
     25 C         139.8451  146.4201  155.8971 C.ar    1  UNL1        0.1400
     26 C         139.0718  147.6927  156.0768 C.ar    1  UNL1        0.0348
     27 C         139.1173  148.7539  155.0175 C.ar    1  UNL1        0.0045
     28 C         139.9360  148.5423  153.7787 C.ar    1  UNL1        0.0208
     29 C         140.7094  147.2696  153.5990 C.ar    1  UNL1        0.1003
     30 N         140.6639  146.2085  154.6583 N.ar    1  UNL1       -0.2287
@<TRIPOS>BOND
     1     1     2    2
     2     2     3    1
     3     3     4    1
     4     4     5    1
     5     5     6    1
     6     6     7    1
     7     7    12    1
     8    12    13    2
     9    13    14    1
    10    14    15    2
    11    15    16    1
    12    16    21    1
    13    21    22    1
    14    21    23    1
    15    21    24    1
    16    16    17    2
    17    17    18    1
    18    18    19    1
    19    19    20    2
    20     7     8    1
    21     8     9    1
    22     4    10    1
    23    10    11    1
    24    11    25    1
    25    25    26   ar
    26    26    27   ar
    27    27    28   ar
    28    28    29   ar
    29    29    30   ar
    30    11     2   am
    31    30    25   ar
    32     9     4    1
    33    20    12    1
    34    19    14    1
@<TRIPOS>MOLECULE
*****
 30 34 0 0 0
SMALL
GASTEIGER

@<TRIPOS>ATOM
      1 O         137.4346  138.6076  166.7484 O.2     1  UNL1       -0.2258
      2 C         138.2648  139.5392  165.9160 C.2     1  UNL1        0.4097
      3 O         137.9571  139.9823  164.5163 O.3     1  UNL1       -0.4398
      4 C         139.0506  140.9082  164.0722 C.3     1  UNL1        0.1561
      5 C         137.9857  140.6824  163.0402 C.3     1  UNL1        0.0425
      6 C         138.0792  141.3602  161.7054 C.3     1  UNL1        0.0160
      7 C         139.2377  142.2637  161.4025 C.3     1  UNL1        0.1122
      8 C         140.3026  142.4894  162.4345 C.3     1  UNL1        0.0160
      9 C         140.2090  141.8116  163.7693 C.3     1  UNL1        0.0425
     10 C         140.0341  141.0372  165.1975 C.3     1  UNL1        0.1429
     11 N         139.5485  140.1911  166.3369 N.am    1  UNL1       -0.2061
     12 C         139.3312  142.9415  160.0676 C.2     1  UNL1        0.3506
     13 N         139.8193  144.3380  159.8201 N.2     1  UNL1       -0.0351
     14 C         139.7428  144.6013  158.3454 C.2     1  UNL1        0.2317
     15 C         140.0915  145.8052  157.5213 C.2     1  UNL1        0.0537
     16 C         139.9048  145.7752  156.0333 C.2     1  UNL1        0.0714
     17 C         139.3694  144.5413  155.3693 C.2     1  UNL1       -0.0133
     18 C         139.0207  143.3374  156.1934 C.3     1  UNL1        0.1037
     19 C         139.2074  143.3674  157.6814 C.2     1  UNL1        0.2174
     20 N         138.9530  142.3416  158.7458 N.2     1  UNL1       -0.0389
     21 C         140.2535  146.9790  155.2092 C.3     1  UNL1        0.4184
     22 F         140.6022  148.1829  154.3851 F       1  UNL1       -0.1659
     23 F         139.3260  147.8160  156.0394 F       1  UNL1       -0.1659
     24 F         141.1810  146.1421  154.3790 F       1  UNL1       -0.1659
     25 C         140.2273  140.0260  167.6642 C.ar    1  UNL1        0.1400
     26 C         141.7051  139.7766  167.7249 C.ar    1  UNL1        0.0348
     27 C         142.3840  139.6115  169.0523 C.ar    1  UNL1        0.0045
     28 C         141.5849  139.6958  170.3190 C.ar    1  UNL1        0.0208
     29 C         140.1070  139.9452  170.2583 C.ar    1  UNL1        0.1003
     30 N         139.4283  140.1103  168.9309 N.ar    1  UNL1       -0.2287
@<TRIPOS>BOND
     1     1     2    2
     2     2     3    1
     3     3     4    1
     4     4     5    1
     5     5     6    1
     6     6     7    1
     7     7    12    1
     8    12    13    2
     9    13    14    1
    10    14    15    2
    11    15    16    1
    12    16    21    1
    13    21    22    1
    14    21    23    1
    15    21    24    1
    16    16    17    2
    17    17    18    1
    18    18    19    1
    19    19    20    2
    20     7     8    1
    21     8     9    1
    22     4    10    1
    23    10    11    1
    24    11    25    1
    25    25    26   ar
    26    26    27   ar
    27    27    28   ar
    28    28    29   ar
    29    29    30   ar
    30    11     2   am
    31    30    25   ar
    32     9     4    1
    33    20    12    1
    34    19    14    1
@<TRIPOS>MOLECULE
*****
 30 34 0 0 0
SMALL
GASTEIGER

@<TRIPOS>ATOM
      1 O         144.8464  143.9632  165.8926 O.2     1  UNL1       -0.2258
      2 C         143.9779  142.8976  165.2926 C.2     1  UNL1        0.4097
      3 O         144.0878  142.3510  163.8999 O.3     1  UNL1       -0.4398
      4 C         143.0248  141.3070  163.7264 C.3     1  UNL1        0.1561
      5 C         143.8783  141.5166  162.5109 C.3     1  UNL1        0.0425
      6 C         143.6265  140.7125  161.2699 C.3     1  UNL1        0.0160
      7 C         142.5211  139.6989  161.2445 C.3     1  UNL1        0.1122
      8 C         141.6676  139.4893  162.4601 C.3     1  UNL1        0.0160
      9 C         141.9195  140.2933  163.7010 C.3     1  UNL1        0.0425
     10 C         142.2579  141.2083  165.0118 C.3     1  UNL1        0.1429
     11 N         142.8469  142.1913  165.9797 N.am    1  UNL1       -0.2061
     12 C         142.2693  138.8948  160.0035 C.2     1  UNL1        0.3506
     13 N         143.1817  137.8526  159.4279 N.2     1  UNL1       -0.0351
     14 C         142.5371  137.3054  158.1889 C.2     1  UNL1        0.2317
     15 C         142.9744  136.2571  157.2092 C.2     1  UNL1        0.0537
     16 C         142.1008  135.9128  156.0394 C.2     1  UNL1        0.0714
     17 C         140.7901  136.6168  155.8493 C.2     1  UNL1       -0.0133
     18 C         140.3528  137.6651  156.8290 C.3     1  UNL1        0.1037
     19 C         141.2263  138.0095  157.9987 C.2     1  UNL1        0.2174
     20 N         141.0608  138.9917  159.1202 N.2     1  UNL1       -0.0389
     21 C         142.5381  134.8644  155.0597 C.3     1  UNL1        0.4184
     22 F         142.9754  133.8161  154.0800 F       1  UNL1       -0.1659
     23 F         141.1572  134.2789  155.0698 F       1  UNL1       -0.1659
     24 F         143.9191  135.4499  155.0496 F       1  UNL1       -0.1659
     25 C         142.3859  142.4266  167.3875 C.ar    1  UNL1        0.1400
     26 C         140.9233  142.5828  167.6816 C.ar    1  UNL1        0.0348
     27 C         140.4623  142.8182  169.0894 C.ar    1  UNL1        0.0045
     28 C         141.4639  142.8974  170.2032 C.ar    1  UNL1        0.0208
     29 C         142.9265  142.7413  169.9092 C.ar    1  UNL1        0.1003
     30 N         143.3875  142.5059  168.5013 N.ar    1  UNL1       -0.2287
@<TRIPOS>BOND
     1     1     2    2
     2     2     3    1
     3     3     4    1
     4     4     5    1
     5     5     6    1
     6     6     7    1
     7     7    12    1
     8    12    13    2
     9    13    14    1
    10    14    15    2
    11    15    16    1
    12    16    21    1
    13    21    22    1
    14    21    23    1
    15    21    24    1
    16    16    17    2
    17    17    18    1
    18    18    19    1
    19    19    20    2
    20     7     8    1
    21     8     9    1
    22     4    10    1
    23    10    11    1
    24    11    25    1
    25    25    26   ar
    26    26    27   ar
    27    27    28   ar
    28    28    29   ar
    29    29    30   ar
    30    11     2   am
    31    30    25   ar
    32     9     4    1
    33    20    12    1
    34    19    14    1
@<TRIPOS>MOLECULE
*****
 30 34 0 0 0
SMALL
GASTEIGER

@<TRIPOS>ATOM
      1 O         145.2711  142.1434  156.8090 O.2     1  UNL1       -0.2258
      2 C         144.4987  141.6134  157.9806 C.2     1  UNL1        0.4097
      3 O         144.4851  142.1946  159.3634 O.3     1  UNL1       -0.4398
      4 C         143.5823  141.3497  160.2125 C.3     1  UNL1        0.1561
      5 C         144.2044  142.5024  160.9433 C.3     1  UNL1        0.0425
      6 C         143.8994  142.7222  162.3954 C.3     1  UNL1        0.0160
      7 C         142.9724  141.7893  163.1167 C.3     1  UNL1        0.1122
      8 C         142.3503  140.6365  162.3859 C.3     1  UNL1        0.0160
      9 C         142.6552  140.4167  160.9338 C.3     1  UNL1        0.0425
     10 C         143.0379  140.2462  159.3545 C.3     1  UNL1        0.1429
     11 N         143.6043  140.4092  157.9751 N.am    1  UNL1       -0.2061
     12 C         142.6675  142.0092  164.5689 C.2     1  UNL1        0.3506
     13 N         141.3271  142.3568  165.1456 N.2     1  UNL1       -0.0351
     14 C         141.4807  142.4825  166.6324 C.2     1  UNL1        0.2317
     15 C         140.4990  142.8079  167.7189 C.2     1  UNL1        0.0537
     16 C         140.9526  142.8633  169.1476 C.2     1  UNL1        0.0714
     17 C         142.3879  142.5933  169.4898 C.2     1  UNL1       -0.0133
     18 C         143.3695  142.2679  168.4033 C.3     1  UNL1        0.1037
     19 C         142.9160  142.2125  166.9747 C.2     1  UNL1        0.2174
     20 N         143.6494  141.9200  165.6993 N.2     1  UNL1       -0.0389
     21 C         139.9710  143.1887  170.2341 C.3     1  UNL1        0.4184
     22 F         138.9893  143.5141  171.3206 F       1  UNL1       -0.1659
     23 F         140.3019  144.6453  170.0969 F       1  UNL1       -0.1659
     24 F         139.6400  141.7321  170.3713 F       1  UNL1       -0.1659
     25 C         143.3253  139.5236  156.7971 C.ar    1  UNL1        0.1400
     26 C         142.6352  140.0801  155.5872 C.ar    1  UNL1        0.0348
     27 C         142.3562  139.1944  154.4091 C.ar    1  UNL1        0.0045
     28 C         142.7673  137.7522  154.4411 C.ar    1  UNL1        0.0208
     29 C         143.4574  137.1956  155.6511 C.ar    1  UNL1        0.1003
     30 N         143.7364  138.0814  156.8291 N.ar    1  UNL1       -0.2287
@<TRIPOS>BOND
     1     1     2    2
     2     2     3    1
     3     3     4    1
     4     4     5    1
     5     5     6    1
     6     6     7    1
     7     7    12    1
     8    12    13    2
     9    13    14    1
    10    14    15    2
    11    15    16    1
    12    16    21    1
    13    21    22    1
    14    21    23    1
    15    21    24    1
    16    16    17    2
    17    17    18    1
    18    18    19    1
    19    19    20    2
    20     7     8    1
    21     8     9    1
    22     4    10    1
    23    10    11    1
    24    11    25    1
    25    25    26   ar
    26    26    27   ar
    27    27    28   ar
    28    28    29   ar
    29    29    30   ar
    30    11     2   am
    31    30    25   ar
    32     9     4    1
    33    20    12    1
    34    19    14    1
@<TRIPOS>MOLECULE
*****
 30 34 0 0 0
SMALL
GASTEIGER

@<TRIPOS>ATOM
      1 O         142.2693  136.5911  157.0527 O.2     1  UNL1       -0.2258
      2 C         142.6503  137.6566  158.0374 C.2     1  UNL1        0.4097
      3 O         142.4315  137.6055  159.5205 O.3     1  UNL1       -0.4398
      4 C         142.9630  138.8775  160.1116 C.3     1  UNL1        0.1561
      5 C         142.3788  137.9335  161.1203 C.3     1  UNL1        0.0425
      6 C         142.3654  138.3034  162.5739 C.3     1  UNL1        0.0160
      7 C         142.9361  139.6172  163.0188 C.3     1  UNL1        0.1122
      8 C         143.5203  140.5613  162.0101 C.3     1  UNL1        0.0160
      9 C         143.5338  140.1914  160.5565 C.3     1  UNL1        0.0425
     10 C         143.5104  139.7148  158.9938 C.3     1  UNL1        0.1429
     11 N         143.3172  138.9602  157.7119 N.am    1  UNL1       -0.2061
     12 C         142.9226  139.9871  164.4725 C.2     1  UNL1        0.3506
     13 N         143.2451  141.3368  165.0419 N.2     1  UNL1       -0.0351
     14 C         143.1061  141.2560  166.5332 C.2     1  UNL1        0.2317
     15 C         143.2986  142.2760  167.6160 C.2     1  UNL1        0.0537
     16 C         143.0827  141.8964  169.0511 C.2     1  UNL1        0.0714
     17 C         142.6743  140.4968  169.4033 C.2     1  UNL1       -0.0133
     18 C         142.4818  139.4767  168.3206 C.3     1  UNL1        0.1037
     19 C         142.6976  139.8562  166.8856 C.2     1  UNL1        0.2174
     20 N         142.5843  139.0721  165.6119 N.2     1  UNL1       -0.0389
     21 C         143.2753  142.9165  170.1338 C.3     1  UNL1        0.4184
     22 F         143.4678  143.9366  171.2166 F       1  UNL1       -0.1659
     23 F         144.7520  142.6537  170.1188 F       1  UNL1       -0.1659
     24 F         141.7985  143.1792  170.1489 F       1  UNL1       -0.1659
     25 C         143.7200  139.4272  156.3446 C.ar    1  UNL1        0.1400
     26 C         142.7037  139.4880  155.2431 C.ar    1  UNL1        0.0348
     27 C         143.1065  139.9550  153.8758 C.ar    1  UNL1        0.0045
     28 C         144.5258  140.3613  153.6099 C.ar    1  UNL1        0.0208
     29 C         145.5422  140.3006  154.7115 C.ar    1  UNL1        0.1003
     30 N         145.1392  139.8336  156.0788 N.ar    1  UNL1       -0.2287
@<TRIPOS>BOND
     1     1     2    2
     2     2     3    1
     3     3     4    1
     4     4     5    1
     5     5     6    1
     6     6     7    1
     7     7    12    1
     8    12    13    2
     9    13    14    1
    10    14    15    2
    11    15    16    1
    12    16    21    1
    13    21    22    1
    14    21    23    1
    15    21    24    1
    16    16    17    2
    17    17    18    1
    18    18    19    1
    19    19    20    2
    20     7     8    1
    21     8     9    1
    22     4    10    1
    23    10    11    1
    24    11    25    1
    25    25    26   ar
    26    26    27   ar
    27    27    28   ar
    28    28    29   ar
    29    29    30   ar
    30    11     2   am
    31    30    25   ar
    32     9     4    1
    33    20    12    1
    34    19    14    1
@<TRIPOS>MOLECULE
*****
 30 34 0 0 0
SMALL
GASTEIGER

@<TRIPOS>ATOM
      1 O         138.9912  144.6482  165.4551 O.2     1  UNL1       -0.2258
      2 C         139.9858  143.7247  164.8164 C.2     1  UNL1        0.4097
      3 O         140.5798  143.8789  163.4476 O.3     1  UNL1       -0.4398
      4 C         141.5222  142.7343  163.2197 C.3     1  UNL1        0.1561
      5 C         141.4297  143.6877  162.0653 C.3     1  UNL1        0.0425
      6 C         142.2412  143.4469  160.8270 C.3     1  UNL1        0.0160
      7 C         143.1451  142.2528  160.7430 C.3     1  UNL1        0.1122
      8 C         143.2376  141.2995  161.8973 C.3     1  UNL1        0.0160
      9 C         142.4261  141.5402  163.1357 C.3     1  UNL1        0.0425
     10 C         141.5106  141.8728  164.4476 C.3     1  UNL1        0.1429
     11 N         140.5611  142.4848  165.4344 N.am    1  UNL1       -0.2061
     12 C         143.9566  142.0121  159.5046 C.2     1  UNL1        0.3506
     13 N         145.1741  142.7811  159.0849 N.2     1  UNL1       -0.0351
     14 C         145.6629  142.2044  157.7894 C.2     1  UNL1        0.2317
     15 C         146.8234  142.5587  156.9074 C.2     1  UNL1        0.0537
     16 C         147.0683  141.7874  155.6444 C.2     1  UNL1        0.0714
     17 C         146.1529  140.6619  155.2634 C.2     1  UNL1       -0.0133
     18 C         144.9924  140.3077  156.1453 C.3     1  UNL1        0.1037
     19 C         144.7475  141.0789  157.4083 C.2     1  UNL1        0.2174
     20 N         143.6929  140.9600  158.4684 N.2     1  UNL1       -0.0389
     21 C         148.2288  142.1417  154.7624 C.3     1  UNL1        0.4184
     22 F         149.3892  142.4959  153.8805 F       1  UNL1       -0.1659
     23 F         149.1776  141.6281  155.8045 F       1  UNL1       -0.1659
     24 F         147.2800  142.6552  153.7203 F       1  UNL1       -0.1659
     25 C         140.2428  141.9509  166.7994 C.ar    1  UNL1        0.1400
     26 C         139.6696  140.5730  166.9509 C.ar    1  UNL1        0.0348
     27 C         139.3512  140.0390  168.3160 C.ar    1  UNL1        0.0045
     28 C         139.6061  140.8829  169.5297 C.ar    1  UNL1        0.0208
     29 C         140.1794  142.2608  169.3783 C.ar    1  UNL1        0.1003
     30 N         140.4977  142.7947  168.0131 N.ar    1  UNL1       -0.2287
@<TRIPOS>BOND
     1     1     2    2
     2     2     3    1
     3     3     4    1
     4     4     5    1
     5     5     6    1
     6     6     7    1
     7     7    12    1
     8    12    13    2
     9    13    14    1
    10    14    15    2
    11    15    16    1
    12    16    21    1
    13    21    22    1
    14    21    23    1
    15    21    24    1
    16    16    17    2
    17    17    18    1
    18    18    19    1
    19    19    20    2
    20     7     8    1
    21     8     9    1
    22     4    10    1
    23    10    11    1
    24    11    25    1
    25    25    26   ar
    26    26    27   ar
    27    27    28   ar
    28    28    29   ar
    29    29    30   ar
    30    11     2   am
    31    30    25   ar
    32     9     4    1
    33    20    12    1
    34    19    14    1
@<TRIPOS>MOLECULE
*****
 30 34 0 0 0
SMALL
GASTEIGER

@<TRIPOS>ATOM
      1 O         137.4495  138.4529  167.7368 O.2     1  UNL1       -0.2258
      2 C         138.4014  138.8721  166.6560 C.2     1  UNL1        0.4097
      3 O         138.3898  138.3907  165.2353 O.3     1  UNL1       -0.4398
      4 C         139.5132  139.0674  164.5074 C.3     1  UNL1        0.1561
      5 C         138.7116  138.1289  163.6550 C.3     1  UNL1        0.0425
      6 C         139.0668  137.9393  162.2101 C.3     1  UNL1        0.0160
      7 C         140.2235  138.6882  161.6175 C.3     1  UNL1        0.1122
      8 C         141.0250  139.6268  162.4698 C.3     1  UNL1        0.0160
      9 C         140.6699  139.8164  163.9148 C.3     1  UNL1        0.0425
     10 C         140.2191  139.9672  165.4781 C.3     1  UNL1        0.1429
     11 N         139.5320  139.8464  166.8060 N.am    1  UNL1       -0.2061
     12 C         140.5786  138.4985  160.1725 C.2     1  UNL1        0.3506
     13 N         139.6085  138.3714  159.0355 N.2     1  UNL1       -0.0351
     14 C         140.3965  138.1970  157.7711 C.2     1  UNL1        0.2317
     15 C         139.9755  138.0231  156.3420 C.2     1  UNL1        0.0537
     16 C         141.0117  137.8686  155.2684 C.2     1  UNL1        0.0714
     17 C         142.4688  137.8879  155.6240 C.2     1  UNL1       -0.0133
     18 C         142.8898  138.0618  157.0531 C.3     1  UNL1        0.1037
     19 C         141.8537  138.2164  158.1267 C.2     1  UNL1        0.2174
     20 N         141.9662  138.4027  159.6108 N.2     1  UNL1       -0.0389
     21 C         140.5907  137.6946  153.8392 C.3     1  UNL1        0.4184
     22 F         140.1697  137.5207  152.4100 F       1  UNL1       -0.1659
     23 F         142.0298  137.6006  153.4267 F       1  UNL1       -0.1659
     24 F         139.1516  137.7887  154.2517 F       1  UNL1       -0.1659
     25 C         139.9092  140.5725  168.0631 C.ar    1  UNL1        0.1400
     26 C         140.2913  142.0219  168.0062 C.ar    1  UNL1        0.0348
     27 C         140.6686  142.7480  169.2634 C.ar    1  UNL1        0.0045
     28 C         140.6637  142.0247  170.5775 C.ar    1  UNL1        0.0208
     29 C         140.2817  140.5752  170.6344 C.ar    1  UNL1        0.1003
     30 N         139.9044  139.8492  169.3772 N.ar    1  UNL1       -0.2287
@<TRIPOS>BOND
     1     1     2    2
     2     2     3    1
     3     3     4    1
     4     4     5    1
     5     5     6    1
     6     6     7    1
     7     7    12    1
     8    12    13    2
     9    13    14    1
    10    14    15    2
    11    15    16    1
    12    16    21    1
    13    21    22    1
    14    21    23    1
    15    21    24    1
    16    16    17    2
    17    17    18    1
    18    18    19    1
    19    19    20    2
    20     7     8    1
    21     8     9    1
    22     4    10    1
    23    10    11    1
    24    11    25    1
    25    25    26   ar
    26    26    27   ar
    27    27    28   ar
    28    28    29   ar
    29    29    30   ar
    30    11     2   am
    31    30    25   ar
    32     9     4    1
    33    20    12    1
    34    19    14    1
@<TRIPOS>MOLECULE
*****
 30 34 0 0 0
SMALL
GASTEIGER

@<TRIPOS>ATOM
      1 O         144.2774  142.7883  168.3545 O.2     1  UNL1       -0.2258
      2 C         143.3396  142.7354  167.1850 C.2     1  UNL1        0.4097
      3 O         143.5781  143.3449  165.8352 O.3     1  UNL1       -0.4398
      4 C         142.3845  143.0499  164.9759 C.3     1  UNL1        0.1561
      5 C         143.4534  143.8429  164.2841 C.3     1  UNL1        0.0425
      6 C         143.2685  144.2655  162.8568 C.3     1  UNL1        0.0160
      7 C         142.0147  143.8951  162.1214 C.3     1  UNL1        0.1122
      8 C         140.9458  143.1022  162.8132 C.3     1  UNL1        0.0160
      9 C         141.1307  142.6796  164.2405 C.3     1  UNL1        0.0425
     10 C         141.4083  142.2581  165.7946 C.3     1  UNL1        0.1429
     11 N         141.9985  142.0637  167.1598 N.am    1  UNL1       -0.2061
     12 C         141.8298  144.3178  160.6940 C.2     1  UNL1        0.3506
     13 N         140.8075  145.2920  160.1883 N.2     1  UNL1       -0.0351
     14 C         140.9806  145.4167  158.7036 C.2     1  UNL1        0.2317
     15 C         140.2559  146.2312  157.6734 C.2     1  UNL1        0.0537
     16 C         140.6605  146.1486  156.2313 C.2     1  UNL1        0.0714
     17 C         141.7898  145.2515  155.8195 C.2     1  UNL1       -0.0133
     18 C         142.5146  144.4369  156.8496 C.3     1  UNL1        0.1037
     19 C         142.1100  144.5195  158.2916 C.2     1  UNL1        0.2174
     20 N         142.6348  143.8403  159.5218 N.2     1  UNL1       -0.0389
     21 C         139.9357  146.9632  155.2012 C.3     1  UNL1        0.4184
     22 F         139.2109  147.7777  154.1710 F       1  UNL1       -0.1659
     23 F         140.7571  146.3263  154.1197 F       1  UNL1       -0.1659
     24 F         139.1143  147.6001  156.2827 F       1  UNL1       -0.1659
     25 C         141.3599  141.3271  168.2997 C.ar    1  UNL1        0.1400
     26 C         139.9962  141.7259  168.7803 C.ar    1  UNL1        0.0348
     27 C         139.3575  140.9892  169.9202 C.ar    1  UNL1        0.0045
     28 C         140.0827  139.8537  170.5796 C.ar    1  UNL1        0.0208
     29 C         141.4465  139.4548  170.0989 C.ar    1  UNL1        0.1003
     30 N         142.0851  140.1916  168.9590 N.ar    1  UNL1       -0.2287
@<TRIPOS>BOND
     1     1     2    2
     2     2     3    1
     3     3     4    1
     4     4     5    1
     5     5     6    1
     6     6     7    1
     7     7    12    1
     8    12    13    2
     9    13    14    1
    10    14    15    2
    11    15    16    1
    12    16    21    1
    13    21    22    1
    14    21    23    1
    15    21    24    1
    16    16    17    2
    17    17    18    1
    18    18    19    1
    19    19    20    2
    20     7     8    1
    21     8     9    1
    22     4    10    1
    23    10    11    1
    24    11    25    1
    25    25    26   ar
    26    26    27   ar
    27    27    28   ar
    28    28    29   ar
    29    29    30   ar
    30    11     2   am
    31    30    25   ar
    32     9     4    1
    33    20    12    1
    34    19    14    1
