@<TRIPOS>MOLECULE
*****
 27 29 0 0 0
SMALL
GASTEIGER

@<TRIPOS>ATOM
      1 C         139.8522  140.9010  165.9445 C.ar    1  UNL1        0.0829
      2 C         140.8344  141.9197  166.4420 C.ar    1  UNL1        0.1029
      3 N         140.8595  141.8466  167.9400 N.ar    1  UNL1       -0.1822
      4 C         139.8927  140.7827  168.3684 C.ar    1  UNL1        0.3370
      5 N         139.2702  140.1983  167.1351 N.ar    1  UNL1       -0.2690
      6 C         138.2456  139.1034  167.0988 C.3     1  UNL1        0.1363
      7 C         141.6487  142.8485  165.5909 C.ar    1  UNL1        0.0194
      8 C         140.9672  143.8884  164.7517 C.ar    1  UNL1        0.0039
      9 C         141.7814  144.8171  163.9006 C.ar    1  UNL1        0.0297
     10 C         143.2773  144.7060  163.8887 C.ar    1  UNL1        0.1401
     11 F         144.0915  145.6348  163.0376 F       1  UNL1       -0.2042
     12 C         143.9588  143.6661  164.7278 C.ar    1  UNL1        0.0297
     13 C         143.1446  142.7373  165.5789 C.ar    1  UNL1        0.0039
     14 C         140.2371  139.9037  162.1226 C.ar    1  UNL1        0.1342
     15 C         140.5775  140.1725  163.5585 C.ar    1  UNL1        0.0360
     16 C         139.5117  140.6322  164.5086 C.ar    1  UNL1        0.0218
     17 C         138.1055  140.8230  164.0228 C.ar    1  UNL1        0.0223
     18 C         137.7650  140.5542  162.5870 C.ar    1  UNL1        0.1004
     19 N         138.8309  140.0945  161.6368 N.ar    1  UNL1       -0.2290
     20 C         142.8872  137.5790  160.2998 C.3     1  UNL1        0.0950
     21 C         141.8214  138.0386  161.2500 C.2     1  UNL1        0.2277
     22 O         141.2741  137.0929  162.2776 O.2     1  UNL1       -0.2747
     23 N         141.3029  139.4440  161.1725 N.am    1  UNL1       -0.2693
     24 H         141.6621  140.0647  160.4980 H       1  UNL1        0.1563
     25 S         139.6000  140.3748  169.7818 S.O     1  UNL1        0.0959
     26 C         140.6942  139.8186  170.6439 C.3     1  UNL1        0.3285
     27 O         138.2129  140.5231  170.3333 O.co2   1  UNL1       -0.6753
@<TRIPOS>UNITY_ATOM_ATTR
25 1
charge 1
27 1
charge -1
@<TRIPOS>BOND
     1    20    21    1
     2    21    22    2
     3    21    23   am
     4    23    14    1
     5    14    15   ar
     6    15    16   ar
     7    16     1    1
     8     1     2   ar
     9     2     7    1
    10     7     8   ar
    11     8     9   ar
    12     9    10   ar
    13    10    11    1
    14    10    12   ar
    15    12    13   ar
    16     2     3   ar
    17     3     4   ar
    18     4    25    1
    19    25    26    1
    20    25    27    2
    21     4     5   ar
    22     5     6    1
    23    16    17   ar
    24    17    18   ar
    25    18    19   ar
    26    19    14   ar
    27     5     1   ar
    28    13     7   ar
    29    23    24    1
@<TRIPOS>MOLECULE
*****
 27 29 0 0 0
SMALL
GASTEIGER

@<TRIPOS>ATOM
      1 C         140.0666  141.6314  166.7666 C.ar    1  UNL1        0.0829
      2 C         139.5929  140.2286  166.5266 C.ar    1  UNL1        0.1029
      3 N         139.4630  139.5491  167.8575 N.ar    1  UNL1       -0.1822
      4 C         139.8565  140.5320  168.9201 C.ar    1  UNL1        0.3370
      5 N         140.2296  141.8189  168.2459 N.ar    1  UNL1       -0.2690
      6 C         140.6855  143.0731  168.9307 C.3     1  UNL1        0.1363
      7 C         139.3003  139.6133  165.1902 C.ar    1  UNL1        0.0194
      8 C         138.3148  140.2631  164.2648 C.ar    1  UNL1        0.0039
      9 C         138.0223  139.6477  162.9285 C.ar    1  UNL1        0.0297
     10 C         138.7153  138.3825  162.5176 C.ar    1  UNL1        0.1401
     11 F         138.4227  137.7672  161.1812 F       1  UNL1       -0.2042
     12 C         139.7009  137.7326  163.4430 C.ar    1  UNL1        0.0297
     13 C         139.9934  138.3480  164.7793 C.ar    1  UNL1        0.0039
     14 C         141.8897  143.6833  163.9002 C.ar    1  UNL1        0.1342
     15 C         141.6253  142.6495  164.9543 C.ar    1  UNL1        0.0360
     16 C         140.3311  142.6653  165.7124 C.ar    1  UNL1        0.0218
     17 C         139.3012  143.7149  165.4163 C.ar    1  UNL1        0.0223
     18 C         139.5657  144.7487  164.3621 C.ar    1  UNL1        0.1004
     19 N         140.8599  144.7329  163.6041 N.ar    1  UNL1       -0.2290
     20 C         144.6395  142.7529  161.1941 C.3     1  UNL1        0.0950
     21 C         143.3452  142.7687  161.9521 C.2     1  UNL1        0.2277
     22 O         142.2122  141.8857  161.5201 O.2     1  UNL1       -0.2747
     23 N         143.1840  143.6675  163.1421 N.am    1  UNL1       -0.2693
     24 H         143.9276  144.2470  163.4256 H       1  UNL1        0.1563
     25 S         139.8739  140.2733  170.3975 S.O     1  UNL1        0.0959
     26 C         141.0153  140.7728  171.2330 C.3     1  UNL1        0.3285
     27 O         138.7500  139.5152  171.0395 O.co2   1  UNL1       -0.6753
@<TRIPOS>UNITY_ATOM_ATTR
25 1
charge 1
27 1
charge -1
@<TRIPOS>BOND
     1    20    21    1
     2    21    22    2
     3    21    23   am
     4    23    14    1
     5    14    15   ar
     6    15    16   ar
     7    16     1    1
     8     1     2   ar
     9     2     7    1
    10     7     8   ar
    11     8     9   ar
    12     9    10   ar
    13    10    11    1
    14    10    12   ar
    15    12    13   ar
    16     2     3   ar
    17     3     4   ar
    18     4    25    1
    19    25    26    1
    20    25    27    2
    21     4     5   ar
    22     5     6    1
    23    16    17   ar
    24    17    18   ar
    25    18    19   ar
    26    19    14   ar
    27     5     1   ar
    28    13     7   ar
    29    23    24    1
@<TRIPOS>MOLECULE
*****
 27 29 0 0 0
SMALL
GASTEIGER

@<TRIPOS>ATOM
      1 C         141.4543  139.9312  167.0380 C.ar    1  UNL1        0.0829
      2 C         140.0013  139.6597  166.7827 C.ar    1  UNL1        0.1029
      3 N         139.2774  139.7401  168.0939 N.ar    1  UNL1       -0.1822
      4 C         140.2829  140.0613  169.1597 C.ar    1  UNL1        0.3370
      5 N         141.6283  140.1794  168.5070 N.ar    1  UNL1       -0.2690
      6 C         142.9208  140.4911  169.2015 C.3     1  UNL1        0.1363
      7 C         139.3812  139.3603  165.4501 C.ar    1  UNL1        0.0194
      8 C         138.5821  140.4132  164.7411 C.ar    1  UNL1        0.0039
      9 C         137.9619  140.1138  163.4085 C.ar    1  UNL1        0.0297
     10 C         138.1409  138.7614  162.7849 C.ar    1  UNL1        0.1401
     11 F         137.5207  138.4620  161.4523 F       1  UNL1       -0.2042
     12 C         138.9400  137.7084  163.4939 C.ar    1  UNL1        0.0297
     13 C         139.5602  138.0078  164.8265 C.ar    1  UNL1        0.0039
     14 C         143.7416  141.1263  164.0230 C.ar    1  UNL1        0.1342
     15 C         142.6537  141.1065  165.0554 C.ar    1  UNL1        0.0360
     16 C         142.5423  139.9510  166.0055 C.ar    1  UNL1        0.0218
     17 C         143.5188  138.8154  165.9230 C.ar    1  UNL1        0.0223
     18 C         144.6067  138.8353  164.8906 C.ar    1  UNL1        0.1004
     19 N         144.7181  139.9907  163.9406 N.ar    1  UNL1       -0.2290
     20 C         144.2450  144.8145  162.6467 C.3     1  UNL1        0.0950
     21 C         144.1336  143.6590  163.5968 C.2     1  UNL1        0.2277
     22 O         144.3029  143.8809  165.0706 O.2     1  UNL1       -0.2747
     23 N         143.8530  142.2818  163.0730 N.am    1  UNL1       -0.2693
     24 H         143.7419  142.1362  162.1057 H       1  UNL1        0.1563
     25 S         139.9938  140.2341  170.6214 S.O     1  UNL1        0.0959
     26 C         140.4401  141.4773  171.3323 C.3     1  UNL1        0.3285
     27 O         139.2584  139.1638  171.3721 O.co2   1  UNL1       -0.6753
@<TRIPOS>UNITY_ATOM_ATTR
25 1
charge 1
27 1
charge -1
@<TRIPOS>BOND
     1    20    21    1
     2    21    22    2
     3    21    23   am
     4    23    14    1
     5    14    15   ar
     6    15    16   ar
     7    16     1    1
     8     1     2   ar
     9     2     7    1
    10     7     8   ar
    11     8     9   ar
    12     9    10   ar
    13    10    11    1
    14    10    12   ar
    15    12    13   ar
    16     2     3   ar
    17     3     4   ar
    18     4    25    1
    19    25    26    1
    20    25    27    2
    21     4     5   ar
    22     5     6    1
    23    16    17   ar
    24    17    18   ar
    25    18    19   ar
    26    19    14   ar
    27     5     1   ar
    28    13     7   ar
    29    23    24    1
@<TRIPOS>MOLECULE
*****
 27 29 0 0 0
SMALL
GASTEIGER

@<TRIPOS>ATOM
      1 C         140.6186  141.1781  166.6185 C.ar    1  UNL1        0.0829
      2 C         139.7782  139.9784  166.2955 C.ar    1  UNL1        0.1029
      3 N         139.1897  139.4662  167.5766 N.ar    1  UNL1       -0.1822
      4 C         139.6664  140.3494  168.6914 C.ar    1  UNL1        0.3370
      5 N         140.5495  141.4074  168.0992 N.ar    1  UNL1       -0.2690
      6 C         141.2419  142.5025  168.8551 C.3     1  UNL1        0.1363
      7 C         139.5639  139.3935  164.9309 C.ar    1  UNL1        0.0194
      8 C         138.5752  140.0202  163.9931 C.ar    1  UNL1        0.0039
      9 C         138.3608  139.4353  162.6285 C.ar    1  UNL1        0.0297
     10 C         139.1353  138.2237  162.2018 C.ar    1  UNL1        0.1401
     11 F         138.9210  137.6388  160.8373 F       1  UNL1       -0.2042
     12 C         140.1241  137.5969  163.1397 C.ar    1  UNL1        0.0297
     13 C         140.3384  138.1818  164.5042 C.ar    1  UNL1        0.0039
     14 C         141.5582  144.0735  164.0720 C.ar    1  UNL1        0.1342
     15 C         140.7846  143.2479  165.0568 C.ar    1  UNL1        0.0360
     16 C         141.3923  142.0037  165.6336 C.ar    1  UNL1        0.0218
     17 C         142.7736  141.5851  165.2255 C.ar    1  UNL1        0.0223
     18 C         143.5472  142.4106  164.2407 C.ar    1  UNL1        0.1004
     19 N         142.9395  143.6548  163.6639 N.ar    1  UNL1       -0.2290
     20 C         139.5542  146.4904  161.6446 C.3     1  UNL1        0.0950
     21 C         140.1620  145.2462  162.2213 C.2     1  UNL1        0.2277
     22 O         139.9812  143.9305  161.5239 O.2     1  UNL1       -0.2747
     23 N         140.9504  145.3177  163.4953 N.am    1  UNL1       -0.2693
     24 H         141.0691  146.1812  163.9530 H       1  UNL1        0.1563
     25 S         139.3207  140.2006  170.1434 S.O     1  UNL1        0.0959
     26 C         140.4002  140.2718  171.1825 C.3     1  UNL1        0.3285
     27 O         137.8955  139.9807  170.5564 O.co2   1  UNL1       -0.6753
@<TRIPOS>UNITY_ATOM_ATTR
25 1
charge 1
27 1
charge -1
@<TRIPOS>BOND
     1    20    21    1
     2    21    22    2
     3    21    23   am
     4    23    14    1
     5    14    15   ar
     6    15    16   ar
     7    16     1    1
     8     1     2   ar
     9     2     7    1
    10     7     8   ar
    11     8     9   ar
    12     9    10   ar
    13    10    11    1
    14    10    12   ar
    15    12    13   ar
    16     2     3   ar
    17     3     4   ar
    18     4    25    1
    19    25    26    1
    20    25    27    2
    21     4     5   ar
    22     5     6    1
    23    16    17   ar
    24    17    18   ar
    25    18    19   ar
    26    19    14   ar
    27     5     1   ar
    28    13     7   ar
    29    23    24    1
@<TRIPOS>MOLECULE
*****
 27 29 0 0 0
SMALL
GASTEIGER

@<TRIPOS>ATOM
      1 C         140.5593  140.0011  166.2422 C.ar    1  UNL1        0.0829
      2 C         141.8091  140.7211  166.6542 C.ar    1  UNL1        0.1029
      3 N         141.6610  141.1209  168.0923 N.ar    1  UNL1       -0.1822
      4 C         140.3197  140.6480  168.5692 C.ar    1  UNL1        0.3370
      5 N         139.6388  139.9560  167.4257 N.ar    1  UNL1       -0.2690
      6 C         138.2766  139.3289  167.4598 C.3     1  UNL1        0.1363
      7 C         142.9982  140.9935  165.7814 C.ar    1  UNL1        0.0194
      8 C         143.4323  142.4061  165.5246 C.ar    1  UNL1        0.0039
      9 C         144.6214  142.6784  164.6517 C.ar    1  UNL1        0.0297
     10 C         145.3764  141.5381  164.0356 C.ar    1  UNL1        0.1401
     11 F         146.5655  141.8105  163.1628 F       1  UNL1       -0.2042
     12 C         144.9423  140.1254  164.2925 C.ar    1  UNL1        0.0297
     13 C         143.7532  139.8531  165.1653 C.ar    1  UNL1        0.0039
     14 C         139.8843  139.7605  162.3388 C.ar    1  UNL1        0.1342
     15 C         140.1644  140.3344  163.6960 C.ar    1  UNL1        0.0360
     16 C         140.2792  139.4271  164.8849 C.ar    1  UNL1        0.0218
     17 C         140.1139  137.9458  164.7166 C.ar    1  UNL1        0.0223
     18 C         139.8337  137.3718  163.3594 C.ar    1  UNL1        0.1004
     19 N         139.7190  138.2792  162.1705 N.ar    1  UNL1       -0.2290
     20 C         138.3974  142.3617  159.7363 C.3     1  UNL1        0.0950
     21 C         138.5122  141.4543  160.9252 C.2     1  UNL1        0.2277
     22 O         137.3696  141.3335  161.8896 O.2     1  UNL1       -0.2747
     23 N         139.7695  140.6678  161.1499 N.am    1  UNL1       -0.2693
     24 H         140.5194  140.7471  160.5169 H       1  UNL1        0.1563
     25 S         139.7579  140.8344  169.9474 S.O     1  UNL1        0.0959
     26 C         139.6226  142.2134  170.5220 C.3     1  UNL1        0.3285
     27 O         139.3313  139.6419  170.7511 O.co2   1  UNL1       -0.6753
@<TRIPOS>UNITY_ATOM_ATTR
25 1
charge 1
27 1
charge -1
@<TRIPOS>BOND
     1    20    21    1
     2    21    22    2
     3    21    23   am
     4    23    14    1
     5    14    15   ar
     6    15    16   ar
     7    16     1    1
     8     1     2   ar
     9     2     7    1
    10     7     8   ar
    11     8     9   ar
    12     9    10   ar
    13    10    11    1
    14    10    12   ar
    15    12    13   ar
    16     2     3   ar
    17     3     4   ar
    18     4    25    1
    19    25    26    1
    20    25    27    2
    21     4     5   ar
    22     5     6    1
    23    16    17   ar
    24    17    18   ar
    25    18    19   ar
    26    19    14   ar
    27     5     1   ar
    28    13     7   ar
    29    23    24    1
@<TRIPOS>MOLECULE
*****
 27 29 0 0 0
SMALL
GASTEIGER

@<TRIPOS>ATOM
      1 C         140.0465  141.4512  166.6699 C.ar    1  UNL1        0.0829
      2 C         140.1256  142.9408  166.5122 C.ar    1  UNL1        0.1029
      3 N         140.2655  143.5447  167.8781 N.ar    1  UNL1       -0.1822
      4 C         140.2730  142.4283  168.8800 C.ar    1  UNL1        0.3370
      5 N         140.1375  141.1345  168.1332 N.ar    1  UNL1       -0.2690
      6 C         140.0999  139.7645  168.7428 C.3     1  UNL1        0.1363
      7 C         140.0738  143.6942  165.2162 C.ar    1  UNL1        0.0194
      8 C         141.3458  144.0741  164.5181 C.ar    1  UNL1        0.0039
      9 C         141.2940  144.8276  163.2221 C.ar    1  UNL1        0.0297
     10 C         139.9701  145.2011  162.6241 C.ar    1  UNL1        0.1401
     11 F         139.9183  145.9546  161.3281 F       1  UNL1       -0.2042
     12 C         138.6979  144.8212  163.3223 C.ar    1  UNL1        0.0297
     13 C         138.7497  144.0678  164.6183 C.ar    1  UNL1        0.0039
     14 C         140.9709  138.7758  163.8882 C.ar    1  UNL1        0.1342
     15 C         141.1156  139.7735  164.9989 C.ar    1  UNL1        0.0360
     16 C         139.9017  140.4534  165.5592 C.ar    1  UNL1        0.0218
     17 C         138.5430  140.1357  165.0088 C.ar    1  UNL1        0.0223
     18 C         138.3982  139.1380  163.8982 C.ar    1  UNL1        0.1004
     19 N         139.6122  138.4580  163.3379 N.ar    1  UNL1       -0.2290
     20 C         143.9913  137.8864  161.4725 C.3     1  UNL1        0.0950
     21 C         142.7774  138.5664  162.0328 C.2     1  UNL1        0.2277
     22 O         142.1559  139.7169  161.2978 O.2     1  UNL1       -0.2747
     23 N         142.1849  138.0958  163.3279 N.am    1  UNL1       -0.2693
     24 H         142.5928  137.3407  163.8103 H       1  UNL1        0.1563
     25 S         140.3944  142.5793  170.3674 S.O     1  UNL1        0.0959
     26 C         141.6013  142.0441  171.0795 C.3     1  UNL1        0.3285
     27 O         139.3091  143.2655  171.1428 O.co2   1  UNL1       -0.6753
@<TRIPOS>UNITY_ATOM_ATTR
25 1
charge 1
27 1
charge -1
@<TRIPOS>BOND
     1    20    21    1
     2    21    22    2
     3    21    23   am
     4    23    14    1
     5    14    15   ar
     6    15    16   ar
     7    16     1    1
     8     1     2   ar
     9     2     7    1
    10     7     8   ar
    11     8     9   ar
    12     9    10   ar
    13    10    11    1
    14    10    12   ar
    15    12    13   ar
    16     2     3   ar
    17     3     4   ar
    18     4    25    1
    19    25    26    1
    20    25    27    2
    21     4     5   ar
    22     5     6    1
    23    16    17   ar
    24    17    18   ar
    25    18    19   ar
    26    19    14   ar
    27     5     1   ar
    28    13     7   ar
    29    23    24    1
@<TRIPOS>MOLECULE
*****
 27 29 0 0 0
SMALL
GASTEIGER

@<TRIPOS>ATOM
      1 C         141.2304  142.5244  166.4276 C.ar    1  UNL1        0.0829
      2 C         142.6264  142.5509  165.8794 C.ar    1  UNL1        0.1029
      3 N         143.5780  142.3785  167.0260 N.ar    1  UNL1       -0.1822
      4 C         142.7701  142.2454  168.2829 C.ar    1  UNL1        0.3370
      5 N         141.3192  142.3356  167.9130 N.ar    1  UNL1       -0.2690
      6 C         140.1606  142.2517  168.8620 C.3     1  UNL1        0.1363
      7 C         143.0044  142.7202  164.4378 C.ar    1  UNL1        0.0194
      8 C         143.5565  144.0289  163.9557 C.ar    1  UNL1        0.0039
      9 C         143.9346  144.1981  162.5141 C.ar    1  UNL1        0.0297
     10 C         143.7606  143.0585  161.5543 C.ar    1  UNL1        0.1401
     11 F         144.1386  143.2278  160.1127 F       1  UNL1       -0.2042
     12 C         143.2084  141.7498  162.0364 C.ar    1  UNL1        0.0297
     13 C         142.8304  141.5805  163.4780 C.ar    1  UNL1        0.0039
     14 C         138.0976  141.5969  164.1748 C.ar    1  UNL1        0.1342
     15 C         139.3606  141.4589  164.9720 C.ar    1  UNL1        0.0360
     16 C         139.9673  142.6625  165.6303 C.ar    1  UNL1        0.0218
     17 C         139.3109  144.0040  165.4915 C.ar    1  UNL1        0.0223
     18 C         138.0478  144.1420  164.6942 C.ar    1  UNL1        0.1004
     19 N         137.4412  142.9384  164.0359 N.ar    1  UNL1       -0.2290
     20 C         137.5759  138.5427  161.6949 C.3     1  UNL1        0.0950
     21 C         138.1825  139.7463  162.3532 C.2     1  UNL1        0.2277
     22 O         139.4808  140.3028  161.8484 O.2     1  UNL1       -0.2747
     23 N         137.4909  140.3933  163.5164 N.am    1  UNL1       -0.2693
     24 H         136.6389  140.0281  163.8478 H       1  UNL1        0.1563
     25 S         143.3171  142.0555  169.6667 S.O     1  UNL1        0.0959
     26 C         143.0596  140.7759  170.4058 C.3     1  UNL1        0.3285
     27 O         144.1216  143.1452  170.3112 O.co2   1  UNL1       -0.6753
@<TRIPOS>UNITY_ATOM_ATTR
25 1
charge 1
27 1
charge -1
@<TRIPOS>BOND
     1    20    21    1
     2    21    22    2
     3    21    23   am
     4    23    14    1
     5    14    15   ar
     6    15    16   ar
     7    16     1    1
     8     1     2   ar
     9     2     7    1
    10     7     8   ar
    11     8     9   ar
    12     9    10   ar
    13    10    11    1
    14    10    12   ar
    15    12    13   ar
    16     2     3   ar
    17     3     4   ar
    18     4    25    1
    19    25    26    1
    20    25    27    2
    21     4     5   ar
    22     5     6    1
    23    16    17   ar
    24    17    18   ar
    25    18    19   ar
    26    19    14   ar
    27     5     1   ar
    28    13     7   ar
    29    23    24    1
@<TRIPOS>MOLECULE
*****
 27 29 0 0 0
SMALL
GASTEIGER

@<TRIPOS>ATOM
      1 C         141.0911  140.1756  166.3986 C.ar    1  UNL1        0.0829
      2 C         142.4111  139.5793  166.0089 C.ar    1  UNL1        0.1029
      3 N         143.1249  139.1729  167.2641 N.ar    1  UNL1       -0.1822
      4 C         142.2459  139.5182  168.4296 C.ar    1  UNL1        0.3370
      5 N         140.9890  140.1379  167.8946 N.ar    1  UNL1       -0.2690
      6 C         139.8329  140.6329  168.7122 C.3     1  UNL1        0.1363
      7 C         142.9269  139.4176  164.6097 C.ar    1  UNL1        0.0194
      8 C         142.4073  138.3099  163.7420 C.ar    1  UNL1        0.0039
      9 C         142.9231  138.1483  162.3428 C.ar    1  UNL1        0.0297
     10 C         143.9586  139.0944  161.8112 C.ar    1  UNL1        0.1401
     11 F         144.4744  138.9327  160.4120 F       1  UNL1       -0.2042
     12 C         144.4783  140.2021  162.6789 C.ar    1  UNL1        0.0297
     13 C         143.9625  140.3638  164.0781 C.ar    1  UNL1        0.0039
     14 C         139.0518  142.6988  164.1129 C.ar    1  UNL1        0.1342
     15 C         140.0878  142.1594  165.0539 C.ar    1  UNL1        0.0360
     16 C         140.0550  140.7150  165.4575 C.ar    1  UNL1        0.0218
     17 C         138.9863  139.8102  164.9199 C.ar    1  UNL1        0.0223
     18 C         137.9503  140.3496  163.9789 C.ar    1  UNL1        0.1004
     19 N         137.9830  141.7939  163.5753 N.ar    1  UNL1       -0.2290
     20 C         139.8961  146.0107  162.0958 C.3     1  UNL1        0.0950
     21 C         139.8634  144.5663  162.4993 C.2     1  UNL1        0.2277
     22 O         140.6097  143.5452  161.6928 O.2     1  UNL1       -0.2747
     23 N         139.0845  144.1431  163.7093 N.am    1  UNL1       -0.2693
     24 H         138.5947  144.8133  164.2386 H       1  UNL1        0.1563
     25 S         142.5674  139.2847  169.8760 S.O     1  UNL1        0.0959
     26 C         142.4786  140.4167  170.8562 C.3     1  UNL1        0.3285
     27 O         142.9778  137.9193  170.3422 O.co2   1  UNL1       -0.6753
@<TRIPOS>UNITY_ATOM_ATTR
25 1
charge 1
27 1
charge -1
@<TRIPOS>BOND
     1    20    21    1
     2    21    22    2
     3    21    23   am
     4    23    14    1
     5    14    15   ar
     6    15    16   ar
     7    16     1    1
     8     1     2   ar
     9     2     7    1
    10     7     8   ar
    11     8     9   ar
    12     9    10   ar
    13    10    11    1
    14    10    12   ar
    15    12    13   ar
    16     2     3   ar
    17     3     4   ar
    18     4    25    1
    19    25    26    1
    20    25    27    2
    21     4     5   ar
    22     5     6    1
    23    16    17   ar
    24    17    18   ar
    25    18    19   ar
    26    19    14   ar
    27     5     1   ar
    28    13     7   ar
    29    23    24    1
@<TRIPOS>MOLECULE
*****
 27 29 0 0 0
SMALL
GASTEIGER

@<TRIPOS>ATOM
      1 C         142.0501  141.2797  165.5618 C.ar    1  UNL1        0.0829
      2 C         140.9759  142.3188  165.6890 C.ar    1  UNL1        0.1029
      3 N         140.2378  142.0680  166.9705 N.ar    1  UNL1       -0.1822
      4 C         140.8558  140.8738  167.6354 C.ar    1  UNL1        0.3370
      5 N         141.9759  140.3866  166.7647 N.ar    1  UNL1       -0.2690
      6 C         142.8656  139.2125  167.0474 C.3     1  UNL1        0.1363
      7 C         140.6899  143.4161  164.7071 C.ar    1  UNL1        0.0194
      8 C         139.2930  143.6262  164.2029 C.ar    1  UNL1        0.0039
      9 C         139.0070  144.7235  163.2210 C.ar    1  UNL1        0.0297
     10 C         140.1181  145.6108  162.7433 C.ar    1  UNL1        0.1401
     11 F         139.8321  146.7081  161.7614 F       1  UNL1       -0.2042
     12 C         141.5151  145.4007  163.2475 C.ar    1  UNL1        0.0297
     13 C         141.8011  144.3034  164.2294 C.ar    1  UNL1        0.0039
     14 C         143.5505  140.4999  161.9714 C.ar    1  UNL1        0.1342
     15 C         142.5736  140.6242  163.1028 C.ar    1  UNL1        0.0360
     16 C         143.0271  141.1554  164.4303 C.ar    1  UNL1        0.0218
     17 C         144.4574  141.5622  164.6263 C.ar    1  UNL1        0.0223
     18 C         145.4343  141.4379  163.4949 C.ar    1  UNL1        0.1004
     19 N         144.9808  140.9067  162.1674 N.ar    1  UNL1       -0.2290
     20 C         142.8251  137.9853  158.9880 C.3     1  UNL1        0.0950
     21 C         143.2786  138.5164  160.3155 C.2     1  UNL1        0.2277
     22 O         143.9138  137.5953  161.3145 O.2     1  UNL1       -0.2747
     23 N         143.0970  139.9687  160.6439 N.am    1  UNL1       -0.2693
     24 H         142.6801  140.5733  159.9882 H       1  UNL1        0.1563
     25 S         140.4288  140.2724  168.9415 S.O     1  UNL1        0.0959
     26 C         141.3451  140.3276  170.1278 C.3     1  UNL1        0.3285
     27 O         139.0854  139.6159  169.0613 O.co2   1  UNL1       -0.6753
@<TRIPOS>UNITY_ATOM_ATTR
25 1
charge 1
27 1
charge -1
@<TRIPOS>BOND
     1    20    21    1
     2    21    22    2
     3    21    23   am
     4    23    14    1
     5    14    15   ar
     6    15    16   ar
     7    16     1    1
     8     1     2   ar
     9     2     7    1
    10     7     8   ar
    11     8     9   ar
    12     9    10   ar
    13    10    11    1
    14    10    12   ar
    15    12    13   ar
    16     2     3   ar
    17     3     4   ar
    18     4    25    1
    19    25    26    1
    20    25    27    2
    21     4     5   ar
    22     5     6    1
    23    16    17   ar
    24    17    18   ar
    25    18    19   ar
    26    19    14   ar
    27     5     1   ar
    28    13     7   ar
    29    23    24    1
