@<TRIPOS>MOLECULE
*****
 31 34 0 0 0
SMALL
GASTEIGER

@<TRIPOS>ATOM
      1 C         140.2489  142.3382  165.6610 C.ar    1  UNL1        0.1065
      2 N         141.1814  142.6011  166.8061 N.ar    1  UNL1       -0.1678
      3 N         140.9149  141.5738  167.8662 N.ar    1  UNL1       -0.2315
      4 C         139.8177  140.6760  167.3762 C.ar    1  UNL1        0.1654
      5 N         139.1402  139.4894  167.9949 N.ar    1  UNL1       -0.2050
      6 C         138.0510  138.7751  167.2507 C.ar    1  UNL1        0.2014
      7 N         137.6395  139.2475  165.8878 N.ar    1  UNL1       -0.2093
      8 C         138.3169  140.4342  165.2691 C.ar    1  UNL1        0.1316
      9 N         137.9054  140.9067  163.9062 N.pl3   1  UNL1       -0.3425
     10 C         139.4060  141.1484  166.0133 C.ar    1  UNL1        0.0860
     11 H         137.1906  140.4379  163.4178 H       1  UNL1        0.1437
     12 H         138.3500  141.6855  163.5002 H       1  UNL1        0.1437
     13 C         140.8093  145.1180  159.3993 C.ar    1  UNL1        0.2248
     14 C         141.7511  143.9554  159.5065 C.ar    1  UNL1        0.0577
     15 C         141.8273  143.1670  160.7803 C.ar    1  UNL1        0.0063
     16 C         140.9618  143.5411  161.9468 C.ar    1  UNL1        0.0180
     17 C         141.0381  142.7526  163.2206 C.ar    1  UNL1        0.0031
     18 C         140.1726  143.1267  164.3872 C.ar    1  UNL1        0.0196
     19 C         139.2308  144.2893  164.2800 C.ar    1  UNL1        0.0031
     20 C         139.1545  145.0777  163.0062 C.ar    1  UNL1        0.0193
     21 C         140.0201  144.7036  161.8396 C.ar    1  UNL1        0.0844
     22 N         139.9438  145.4920  160.5658 N.ar    1  UNL1       -0.2117
     23 O         140.7330  145.9064  158.1255 O.3     1  UNL1       -0.4602
     24 C         141.8264  145.3835  155.8275 C.3     1  UNL1        0.0512
     25 C         141.9177  145.9646  157.2073 C.3     1  UNL1        0.2072
     26 C         141.6215  141.4636  169.1847 C.3     1  UNL1        0.1557
     27 C         142.0854  142.7020  169.8927 C.3     1  UNL1        0.1110
     28 C         143.5118  142.3091  169.6450 C.3     1  UNL1        0.0314
     29 C         140.6591  143.0948  170.1403 C.3     1  UNL1        0.0314
     30 O         142.5494  143.9403  170.6007 O.3     1  UNL1       -0.3848
     31 H         143.5190  143.9677  170.6023 H       1  UNL1        0.2103
@<TRIPOS>BOND
     1    24    25    1
     2    25    23    1
     3    23    13    1
     4    13    14   ar
     5    14    15   ar
     6    15    16   ar
     7    16    17   ar
     8    17    18   ar
     9    18     1    1
    10     1     2   ar
    11     2     3   ar
    12     3    26    1
    13    26    27    1
    14    27    28    1
    15    27    29    1
    16    27    30    1
    17     3     4   ar
    18     4     5   ar
    19     5     6   ar
    20     6     7   ar
    21     7     8   ar
    22     8     9    1
    23     8    10   ar
    24    18    19   ar
    25    19    20   ar
    26    20    21   ar
    27    21    22   ar
    28    22    13   ar
    29    21    16   ar
    30    10     1   ar
    31    10     4   ar
    32    30    31    1
    33     9    11    1
    34     9    12    1
@<TRIPOS>MOLECULE
*****
 31 34 0 0 0
SMALL
GASTEIGER

@<TRIPOS>ATOM
      1 C         140.7500  141.7842  165.8939 C.ar    1  UNL1        0.1065
      2 N         141.3777  142.1356  167.2101 N.ar    1  UNL1       -0.1678
      3 N         140.7142  141.3128  168.2745 N.ar    1  UNL1       -0.2315
      4 C         139.6765  140.4529  167.6160 C.ar    1  UNL1        0.1654
      5 N         138.7142  139.4422  168.1661 N.ar    1  UNL1       -0.2050
      6 C         137.7740  138.7228  167.2448 C.ar    1  UNL1        0.2014
      7 N         137.7962  139.0141  165.7735 N.ar    1  UNL1       -0.2093
      8 C         138.7584  140.0248  165.2235 C.ar    1  UNL1        0.1316
      9 N         138.7806  140.3161  163.7522 N.pl3   1  UNL1       -0.3425
     10 C         139.6986  140.7441  166.1447 C.ar    1  UNL1        0.0860
     11 H         138.1635  139.8440  163.1476 H       1  UNL1        0.1437
     12 H         139.4122  140.9795  163.3912 H       1  UNL1        0.1437
     13 C         141.3657  145.2366  159.9819 C.ar    1  UNL1        0.2248
     14 C         140.1791  145.7605  160.7351 C.ar    1  UNL1        0.0577
     15 C         139.8186  145.1748  162.0682 C.ar    1  UNL1        0.0063
     16 C         140.6448  144.0652  162.6480 C.ar    1  UNL1        0.0180
     17 C         140.2843  143.4795  163.9810 C.ar    1  UNL1        0.0031
     18 C         141.1105  142.3699  164.5608 C.ar    1  UNL1        0.0196
     19 C         142.2972  141.8459  163.8076 C.ar    1  UNL1        0.0031
     20 C         142.6576  142.4316  162.4745 C.ar    1  UNL1        0.0193
     21 C         141.8314  143.5413  161.8947 C.ar    1  UNL1        0.0844
     22 N         142.1918  144.1270  160.5617 N.ar    1  UNL1       -0.2117
     23 O         141.7261  145.8223  158.6488 O.3     1  UNL1       -0.4602
     24 C         139.9098  144.6125  157.2392 C.3     1  UNL1        0.0512
     25 C         140.7161  145.8410  157.5400 C.3     1  UNL1        0.2072
     26 C         141.0325  141.3444  169.7399 C.3     1  UNL1        0.1557
     27 C         142.4147  141.0063  170.2146 C.3     1  UNL1        0.1110
     28 C         142.6864  142.4610  170.4599 C.3     1  UNL1        0.0314
     29 C         142.1431  139.5516  169.9693 C.3     1  UNL1        0.0314
     30 O         143.7969  140.6681  170.6893 O.3     1  UNL1       -0.3848
     31 H         144.2604  141.4822  170.9411 H       1  UNL1        0.2103
@<TRIPOS>BOND
     1    24    25    1
     2    25    23    1
     3    23    13    1
     4    13    14   ar
     5    14    15   ar
     6    15    16   ar
     7    16    17   ar
     8    17    18   ar
     9    18     1    1
    10     1     2   ar
    11     2     3   ar
    12     3    26    1
    13    26    27    1
    14    27    28    1
    15    27    29    1
    16    27    30    1
    17     3     4   ar
    18     4     5   ar
    19     5     6   ar
    20     6     7   ar
    21     7     8   ar
    22     8     9    1
    23     8    10   ar
    24    18    19   ar
    25    19    20   ar
    26    20    21   ar
    27    21    22   ar
    28    22    13   ar
    29    21    16   ar
    30    10     1   ar
    31    10     4   ar
    32    30    31    1
    33     9    11    1
    34     9    12    1
@<TRIPOS>MOLECULE
*****
 31 34 0 0 0
SMALL
GASTEIGER

@<TRIPOS>ATOM
      1 C         141.6988  139.9817  165.3843 C.ar    1  UNL1        0.1065
      2 N         142.3368  140.7152  166.5266 N.ar    1  UNL1       -0.1678
      3 N         141.3962  140.6634  167.6939 N.ar    1  UNL1       -0.2315
      4 C         140.1769  139.8979  167.2730 C.ar    1  UNL1        0.1654
      5 N         138.9204  139.5300  168.0051 N.ar    1  UNL1       -0.2050
      6 C         137.8509  138.7408  167.3097 C.ar    1  UNL1        0.2014
      7 N         138.0379  138.3195  165.8823 N.ar    1  UNL1       -0.2093
      8 C         139.2944  138.6874  165.1502 C.ar    1  UNL1        0.1316
      9 N         139.4814  138.2660  163.7228 N.pl3   1  UNL1       -0.3425
     10 C         140.3638  139.4765  165.8456 C.ar    1  UNL1        0.0860
     11 H         138.7795  137.7481  163.2664 H       1  UNL1        0.1437
     12 H         140.3061  138.5075  163.2423 H       1  UNL1        0.1437
     13 C         143.8810  140.2527  158.8716 C.ar    1  UNL1        0.2248
     14 C         143.0990  141.4951  159.1795 C.ar    1  UNL1        0.0577
     15 C         142.5062  141.6894  160.5436 C.ar    1  UNL1        0.0063
     16 C         142.6953  140.6412  161.5998 C.ar    1  UNL1        0.0180
     17 C         142.1025  140.8355  162.9640 C.ar    1  UNL1        0.0031
     18 C         142.2916  139.7874  164.0201 C.ar    1  UNL1        0.0196
     19 C         143.0737  138.5449  163.7122 C.ar    1  UNL1        0.0031
     20 C         143.6665  138.3506  162.3481 C.ar    1  UNL1        0.0193
     21 C         143.4773  139.3988  161.2919 C.ar    1  UNL1        0.0844
     22 N         144.0701  139.2046  159.9278 N.ar    1  UNL1       -0.2117
     23 O         144.4738  140.0584  157.5075 O.3     1  UNL1       -0.4602
     24 C         144.2391  139.2470  155.0506 C.3     1  UNL1        0.0512
     25 C         143.6876  139.3547  156.4414 C.3     1  UNL1        0.2072
     26 C         141.6333  141.2705  169.0448 C.3     1  UNL1        0.1557
     27 C         142.7264  140.7397  169.9242 C.3     1  UNL1        0.1110
     28 C         141.9535  139.4688  170.1179 C.3     1  UNL1        0.0314
     29 C         143.4994  142.0105  169.7306 C.3     1  UNL1        0.0314
     30 O         143.8195  140.2088  170.8036 O.3     1  UNL1       -0.3848
     31 H         143.5839  139.3196  171.1113 H       1  UNL1        0.2103
@<TRIPOS>BOND
     1    24    25    1
     2    25    23    1
     3    23    13    1
     4    13    14   ar
     5    14    15   ar
     6    15    16   ar
     7    16    17   ar
     8    17    18   ar
     9    18     1    1
    10     1     2   ar
    11     2     3   ar
    12     3    26    1
    13    26    27    1
    14    27    28    1
    15    27    29    1
    16    27    30    1
    17     3     4   ar
    18     4     5   ar
    19     5     6   ar
    20     6     7   ar
    21     7     8   ar
    22     8     9    1
    23     8    10   ar
    24    18    19   ar
    25    19    20   ar
    26    20    21   ar
    27    21    22   ar
    28    22    13   ar
    29    21    16   ar
    30    10     1   ar
    31    10     4   ar
    32    30    31    1
    33     9    11    1
    34     9    12    1
@<TRIPOS>MOLECULE
*****
 31 34 0 0 0
SMALL
GASTEIGER

@<TRIPOS>ATOM
      1 C         141.2568  140.9434  166.0366 C.ar    1  UNL1        0.1065
      2 N         141.4238  141.6753  167.3352 N.ar    1  UNL1       -0.1678
      3 N         140.3652  141.1897  168.2805 N.ar    1  UNL1       -0.2315
      4 C         139.5439  140.1577  167.5661 C.ar    1  UNL1        0.1654
      5 N         138.3654  139.3369  167.9992 N.ar    1  UNL1       -0.2050
      6 C         137.7380  138.3638  167.0454 C.ar    1  UNL1        0.2014
      7 N         138.2890  138.2116  165.6586 N.ar    1  UNL1       -0.2093
      8 C         139.4674  139.0324  165.2255 C.ar    1  UNL1        0.1316
      9 N         140.0185  138.8802  163.8387 N.pl3   1  UNL1       -0.3425
     10 C         140.0948  140.0054  166.1793 C.ar    1  UNL1        0.0860
     11 H         139.6067  138.2416  163.2128 H       1  UNL1        0.1437
     12 H         140.7919  139.4189  163.5545 H       1  UNL1        0.1437
     13 C         144.1831  142.5496  160.0277 C.ar    1  UNL1        0.2248
     14 C         142.8783  143.2794  160.1490 C.ar    1  UNL1        0.0577
     15 C         142.0320  143.1041  161.3751 C.ar    1  UNL1        0.0063
     16 C         142.4906  142.1990  162.4798 C.ar    1  UNL1        0.0180
     17 C         141.6444  142.0238  163.7059 C.ar    1  UNL1        0.0031
     18 C         142.1030  141.1187  164.8106 C.ar    1  UNL1        0.0196
     19 C         143.4079  140.3888  164.6893 C.ar    1  UNL1        0.0031
     20 C         144.2541  140.5641  163.4632 C.ar    1  UNL1        0.0193
     21 C         143.7954  141.4692  162.3585 C.ar    1  UNL1        0.0844
     22 N         144.6417  141.6445  161.1324 N.ar    1  UNL1       -0.2117
     23 O         145.0293  142.7249  158.8017 O.3     1  UNL1       -0.4602
     24 C         143.9948  140.5719  157.7797 C.3     1  UNL1        0.0512
     25 C         144.9285  141.7411  157.6739 C.3     1  UNL1        0.2072
     26 C         140.1633  141.6544  169.6923 C.3     1  UNL1        0.1557
     27 C         141.1080  141.2116  170.7700 C.3     1  UNL1        0.1110
     28 C         141.8750  142.4924  170.6239 C.3     1  UNL1        0.0314
     29 C         140.3410  139.9308  170.9160 C.3     1  UNL1        0.0314
     30 O         142.0528  140.7687  171.8477 O.3     1  UNL1       -0.3848
     31 H         142.7240  141.4542  171.9909 H       1  UNL1        0.2103
@<TRIPOS>BOND
     1    24    25    1
     2    25    23    1
     3    23    13    1
     4    13    14   ar
     5    14    15   ar
     6    15    16   ar
     7    16    17   ar
     8    17    18   ar
     9    18     1    1
    10     1     2   ar
    11     2     3   ar
    12     3    26    1
    13    26    27    1
    14    27    28    1
    15    27    29    1
    16    27    30    1
    17     3     4   ar
    18     4     5   ar
    19     5     6   ar
    20     6     7   ar
    21     7     8   ar
    22     8     9    1
    23     8    10   ar
    24    18    19   ar
    25    19    20   ar
    26    20    21   ar
    27    21    22   ar
    28    22    13   ar
    29    21    16   ar
    30    10     1   ar
    31    10     4   ar
    32    30    31    1
    33     9    11    1
    34     9    12    1
@<TRIPOS>MOLECULE
*****
 31 34 0 0 0
SMALL
GASTEIGER

@<TRIPOS>ATOM
      1 C         142.1289  142.1440  165.3486 C.ar    1  UNL1        0.1065
      2 N         141.6563  142.6490  166.6796 N.ar    1  UNL1       -0.1678
      3 N         141.9478  141.5943  167.7057 N.ar    1  UNL1       -0.2315
      4 C         142.6005  140.4375  167.0087 C.ar    1  UNL1        0.1654
      5 N         143.1074  139.1186  167.5123 N.ar    1  UNL1       -0.2050
      6 C         143.7263  138.1395  166.5592 C.ar    1  UNL1        0.2014
      7 N         143.8383  138.4792  165.1025 N.ar    1  UNL1       -0.2093
      8 C         143.3313  139.7981  164.5988 C.ar    1  UNL1        0.1316
      9 N         143.4433  140.1379  163.1421 N.pl3   1  UNL1       -0.3425
     10 C         142.7125  140.7772  165.5519 C.ar    1  UNL1        0.0860
     11 H         143.8495  139.4953  162.5166 H       1  UNL1        0.1437
     12 H         143.1106  141.0035  162.8116 H       1  UNL1        0.1437
     13 C         140.6501  144.7512  159.1627 C.ar    1  UNL1        0.2248
     14 C         139.6432  143.6928  159.5029 C.ar    1  UNL1        0.0577
     15 C         139.7375  142.9597  160.8082 C.ar    1  UNL1        0.0063
     16 C         140.8388  143.2850  161.7731 C.ar    1  UNL1        0.0180
     17 C         140.9332  142.5519  163.0784 C.ar    1  UNL1        0.0031
     18 C         142.0345  142.8771  164.0434 C.ar    1  UNL1        0.0196
     19 C         143.0415  143.9356  163.7031 C.ar    1  UNL1        0.0031
     20 C         142.9472  144.6687  162.3979 C.ar    1  UNL1        0.0193
     21 C         141.8458  144.3434  161.4329 C.ar    1  UNL1        0.0844
     22 N         141.7514  145.0765  160.1277 N.ar    1  UNL1       -0.2117
     23 O         140.5557  145.4843  157.8574 O.3     1  UNL1       -0.4602
     24 C         141.3232  145.6346  155.3799 C.3     1  UNL1        0.0512
     25 C         141.6132  145.2922  156.8112 C.3     1  UNL1        0.2072
     26 C         141.6405  141.6811  169.1712 C.3     1  UNL1        0.1557
     27 C         142.1795  142.8206  169.9843 C.3     1  UNL1        0.1110
     28 C         140.8050  143.4164  170.0603 C.3     1  UNL1        0.0314
     29 C         143.5540  142.2247  169.9082 C.3     1  UNL1        0.0314
     30 O         142.7185  143.9600  170.7974 O.3     1  UNL1       -0.3848
     31 H         141.9967  144.5690  171.0190 H       1  UNL1        0.2103
@<TRIPOS>BOND
     1    24    25    1
     2    25    23    1
     3    23    13    1
     4    13    14   ar
     5    14    15   ar
     6    15    16   ar
     7    16    17   ar
     8    17    18   ar
     9    18     1    1
    10     1     2   ar
    11     2     3   ar
    12     3    26    1
    13    26    27    1
    14    27    28    1
    15    27    29    1
    16    27    30    1
    17     3     4   ar
    18     4     5   ar
    19     5     6   ar
    20     6     7   ar
    21     7     8   ar
    22     8     9    1
    23     8    10   ar
    24    18    19   ar
    25    19    20   ar
    26    20    21   ar
    27    21    22   ar
    28    22    13   ar
    29    21    16   ar
    30    10     1   ar
    31    10     4   ar
    32    30    31    1
    33     9    11    1
    34     9    12    1
@<TRIPOS>MOLECULE
*****
 31 34 0 0 0
SMALL
GASTEIGER

@<TRIPOS>ATOM
      1 C         143.0372  143.3745  161.2408 C.ar    1  UNL1        0.1065
      2 N         143.9154  142.7602  160.1913 N.ar    1  UNL1       -0.1678
      3 N         143.3964  143.1808  158.8483 N.ar    1  UNL1       -0.2315
      4 C         142.1974  144.0550  159.0677 C.ar    1  UNL1        0.1654
      5 N         141.2791  144.7576  158.1121 N.ar    1  UNL1       -0.2050
      6 C         140.1387  145.5798  158.6352 C.ar    1  UNL1        0.2014
      7 N         139.9167  145.6995  160.1138 N.ar    1  UNL1       -0.2093
      8 C         140.8350  144.9970  161.0694 C.ar    1  UNL1        0.1316
      9 N         140.6130  145.1167  162.5481 N.pl3   1  UNL1       -0.3425
     10 C         141.9753  144.1748  160.5463 C.ar    1  UNL1        0.0860
     11 H         139.8646  145.6563  162.8914 H       1  UNL1        0.1437
     12 H         141.2157  144.6556  163.1752 H       1  UNL1        0.1437
     13 C         142.8927  141.6779  167.9004 C.ar    1  UNL1        0.2248
     14 C         141.9676  140.7723  167.1428 C.ar    1  UNL1        0.0577
     15 C         141.8115  140.9305  165.6594 C.ar    1  UNL1        0.0063
     16 C         142.5804  141.9943  164.9335 C.ar    1  UNL1        0.0180
     17 C         142.4243  142.1525  163.4501 C.ar    1  UNL1        0.0031
     18 C         143.1933  143.2163  162.7242 C.ar    1  UNL1        0.0196
     19 C         144.1184  144.1220  163.4818 C.ar    1  UNL1        0.0031
     20 C         144.2746  143.9638  164.9653 C.ar    1  UNL1        0.0193
     21 C         143.5055  142.8999  165.6911 C.ar    1  UNL1        0.0844
     22 N         143.6616  142.7417  167.1746 N.ar    1  UNL1       -0.2117
     23 O         143.0488  141.5197  169.3839 O.3     1  UNL1       -0.4602
     24 C         141.2660  143.3508  169.8513 C.3     1  UNL1        0.0512
     25 C         142.4229  142.5159  170.3143 C.3     1  UNL1        0.2072
     26 C         143.9748  142.7950  157.5192 C.3     1  UNL1        0.1557
     27 C         144.6353  141.4591  157.3481 C.3     1  UNL1        0.1110
     28 C         143.3056  140.7820  157.5013 C.3     1  UNL1        0.0314
     29 C         145.9650  142.1363  157.1949 C.3     1  UNL1        0.0314
     30 O         145.2959  140.1233  157.1769 O.3     1  UNL1       -0.3848
     31 H         144.6275  139.4225  157.2335 H       1  UNL1        0.2103
@<TRIPOS>BOND
     1    24    25    1
     2    25    23    1
     3    23    13    1
     4    13    14   ar
     5    14    15   ar
     6    15    16   ar
     7    16    17   ar
     8    17    18   ar
     9    18     1    1
    10     1     2   ar
    11     2     3   ar
    12     3    26    1
    13    26    27    1
    14    27    28    1
    15    27    29    1
    16    27    30    1
    17     3     4   ar
    18     4     5   ar
    19     5     6   ar
    20     6     7   ar
    21     7     8   ar
    22     8     9    1
    23     8    10   ar
    24    18    19   ar
    25    19    20   ar
    26    20    21   ar
    27    21    22   ar
    28    22    13   ar
    29    21    16   ar
    30    10     1   ar
    31    10     4   ar
    32    30    31    1
    33     9    11    1
    34     9    12    1
@<TRIPOS>MOLECULE
*****
 31 34 0 0 0
SMALL
GASTEIGER

@<TRIPOS>ATOM
      1 C         140.6070  140.4931  166.1672 C.ar    1  UNL1        0.1065
      2 N         141.1699  141.2546  167.3304 N.ar    1  UNL1       -0.1678
      3 N         140.3401  140.9357  168.5386 N.ar    1  UNL1       -0.2315
      4 C         139.2643  139.9770  168.1221 C.ar    1  UNL1        0.1654
      5 N         138.1558  139.3177  168.8881 N.ar    1  UNL1       -0.2050
      6 C         137.2122  138.3849  168.1883 C.ar    1  UNL1        0.2014
      7 N         137.3771  138.1114  166.7227 N.ar    1  UNL1       -0.2093
      8 C         138.4856  138.7706  165.9568 C.ar    1  UNL1        0.1316
      9 N         138.6505  138.4971  164.4912 N.pl3   1  UNL1       -0.3425
     10 C         139.4292  139.7034  166.6565 C.ar    1  UNL1        0.0860
     11 H         138.0312  137.8849  164.0320 H       1  UNL1        0.1437
     12 H         139.3780  138.9298  163.9885 H       1  UNL1        0.1437
     13 C         143.6284  139.5106  160.0717 C.ar    1  UNL1        0.2248
     14 C         144.0352  138.4088  161.0046 C.ar    1  UNL1        0.0577
     15 C         143.5123  138.3849  162.4103 C.ar    1  UNL1        0.0063
     16 C         142.5825  139.4629  162.8831 C.ar    1  UNL1        0.0180
     17 C         142.0596  139.4390  164.2888 C.ar    1  UNL1        0.0031
     18 C         141.1299  140.5170  164.7615 C.ar    1  UNL1        0.0196
     19 C         140.7230  141.6189  163.8286 C.ar    1  UNL1        0.0031
     20 C         141.2460  141.6428  162.4229 C.ar    1  UNL1        0.0193
     21 C         142.1757  140.5647  161.9501 C.ar    1  UNL1        0.0844
     22 N         142.6987  140.5886  160.5444 N.ar    1  UNL1       -0.2117
     23 O         144.1513  139.5345  158.6660 O.3     1  UNL1       -0.4602
     24 C         142.6152  137.9812  157.2598 C.3     1  UNL1        0.0512
     25 C         143.2130  139.3334  157.5132 C.3     1  UNL1        0.2072
     26 C         140.5494  141.4798  169.9206 C.3     1  UNL1        0.1557
     27 C         141.8928  142.0139  170.3209 C.3     1  UNL1        0.1110
     28 C         141.4453  143.4021  169.9704 C.3     1  UNL1        0.0314
     29 C         142.3402  140.6258  170.6715 C.3     1  UNL1        0.0314
     30 O         143.2361  142.5480  170.7212 O.3     1  UNL1       -0.3848
     31 H         143.2529  143.5094  170.5937 H       1  UNL1        0.2103
@<TRIPOS>BOND
     1    24    25    1
     2    25    23    1
     3    23    13    1
     4    13    14   ar
     5    14    15   ar
     6    15    16   ar
     7    16    17   ar
     8    17    18   ar
     9    18     1    1
    10     1     2   ar
    11     2     3   ar
    12     3    26    1
    13    26    27    1
    14    27    28    1
    15    27    29    1
    16    27    30    1
    17     3     4   ar
    18     4     5   ar
    19     5     6   ar
    20     6     7   ar
    21     7     8   ar
    22     8     9    1
    23     8    10   ar
    24    18    19   ar
    25    19    20   ar
    26    20    21   ar
    27    21    22   ar
    28    22    13   ar
    29    21    16   ar
    30    10     1   ar
    31    10     4   ar
    32    30    31    1
    33     9    11    1
    34     9    12    1
@<TRIPOS>MOLECULE
*****
 31 34 0 0 0
SMALL
GASTEIGER

@<TRIPOS>ATOM
      1 C         140.8470  141.6432  165.5960 C.ar    1  UNL1        0.1065
      2 N         140.4130  142.2390  166.9024 N.ar    1  UNL1       -0.1678
      3 N         141.0603  141.4567  168.0065 N.ar    1  UNL1       -0.2315
      4 C         141.8944  140.3774  167.3825 C.ar    1  UNL1        0.1654
      5 N         142.7570  139.3046  167.9783 N.ar    1  UNL1       -0.2050
      6 C         143.4877  138.3469  167.0843 C.ar    1  UNL1        0.2014
      7 N         143.3558  138.4622  165.5946 N.ar    1  UNL1       -0.2093
      8 C         142.4933  139.5350  164.9988 C.ar    1  UNL1        0.1316
      9 N         142.3614  139.6503  163.5090 N.pl3   1  UNL1       -0.3425
     10 C         141.7626  140.4926  165.8927 C.ar    1  UNL1        0.0860
     11 H         142.8410  139.0218  162.9223 H       1  UNL1        0.1437
     12 H         141.7953  140.3544  163.1180 H       1  UNL1        0.1437
     13 C         140.1180  144.4254  159.3528 C.ar    1  UNL1        0.2248
     14 C         141.4372  144.8483  159.9279 C.ar    1  UNL1        0.0577
     15 C         141.8469  144.3765  161.2915 C.ar    1  UNL1        0.0063
     16 C         140.9373  143.4817  162.0801 C.ar    1  UNL1        0.0180
     17 C         141.3469  143.0098  163.4438 C.ar    1  UNL1        0.0031
     18 C         140.4373  142.1150  164.2324 C.ar    1  UNL1        0.0196
     19 C         139.1180  141.6921  163.6574 C.ar    1  UNL1        0.0031
     20 C         138.7084  142.1639  162.2937 C.ar    1  UNL1        0.0193
     21 C         139.6180  143.0588  161.5051 C.ar    1  UNL1        0.0844
     22 N         139.2084  143.5306  160.1414 N.ar    1  UNL1       -0.2117
     23 O         139.7083  144.8973  157.9892 O.3     1  UNL1       -0.4602
     24 C         141.1969  145.9598  156.1439 C.3     1  UNL1        0.0512
     25 C         140.3650  146.1024  157.3839 C.3     1  UNL1        0.2072
     26 C         140.9015  141.7093  169.4765 C.3     1  UNL1        0.1557
     27 C         140.4616  140.5997  170.3849 C.3     1  UNL1        0.1110
     28 C         141.7552  140.7026  171.1371 C.3     1  UNL1        0.0314
     29 C         139.1679  140.4968  169.6326 C.3     1  UNL1        0.0314
     30 O         140.0216  139.4900  171.2933 O.3     1  UNL1       -0.3848
     31 H         140.7155  139.3136  171.9477 H       1  UNL1        0.2103
@<TRIPOS>BOND
     1    24    25    1
     2    25    23    1
     3    23    13    1
     4    13    14   ar
     5    14    15   ar
     6    15    16   ar
     7    16    17   ar
     8    17    18   ar
     9    18     1    1
    10     1     2   ar
    11     2     3   ar
    12     3    26    1
    13    26    27    1
    14    27    28    1
    15    27    29    1
    16    27    30    1
    17     3     4   ar
    18     4     5   ar
    19     5     6   ar
    20     6     7   ar
    21     7     8   ar
    22     8     9    1
    23     8    10   ar
    24    18    19   ar
    25    19    20   ar
    26    20    21   ar
    27    21    22   ar
    28    22    13   ar
    29    21    16   ar
    30    10     1   ar
    31    10     4   ar
    32    30    31    1
    33     9    11    1
    34     9    12    1
@<TRIPOS>MOLECULE
*****
 31 34 0 0 0
SMALL
GASTEIGER

@<TRIPOS>ATOM
      1 C         141.1768  141.6406  165.6708 C.ar    1  UNL1        0.1065
      2 N         141.7309  142.0786  166.9941 N.ar    1  UNL1       -0.1678
      3 N         140.9615  141.3771  168.0739 N.ar    1  UNL1       -0.2315
      4 C         139.9318  140.5056  167.4179 C.ar    1  UNL1        0.1654
      5 N         138.8903  139.5847  167.9810 N.ar    1  UNL1       -0.2050
      6 C         137.9818  138.8266  167.0590 C.ar    1  UNL1        0.2014
      7 N         138.1149  138.9895  165.5738 N.ar    1  UNL1       -0.2093
      8 C         139.1565  139.9104  165.0106 C.ar    1  UNL1        0.1316
      9 N         139.2896  140.0732  163.5254 N.pl3   1  UNL1       -0.3425
     10 C         140.0649  140.6684  165.9327 C.ar    1  UNL1        0.0860
     11 H         138.6933  139.5757  162.9203 H       1  UNL1        0.1437
     12 H         139.9732  140.6776  163.1558 H       1  UNL1        0.1437
     13 C         143.8346  142.5150  159.3921 C.ar    1  UNL1        0.2248
     14 C         144.1199  141.1173  159.8558 C.ar    1  UNL1        0.0577
     15 C         143.6454  140.6629  161.2043 C.ar    1  UNL1        0.0063
     16 C         142.8856  141.6062  162.0890 C.ar    1  UNL1        0.0180
     17 C         142.4111  141.1518  163.4375 C.ar    1  UNL1        0.0031
     18 C         141.6513  142.0950  164.3223 C.ar    1  UNL1        0.0196
     19 C         141.3659  143.4928  163.8586 C.ar    1  UNL1        0.0031
     20 C         141.8404  143.9472  162.5101 C.ar    1  UNL1        0.0193
     21 C         142.6003  143.0038  161.6253 C.ar    1  UNL1        0.0844
     22 N         143.0747  143.4582  160.2769 N.ar    1  UNL1       -0.2117
     23 O         144.3091  142.9694  158.0436 O.3     1  UNL1       -0.4602
     24 C         145.6371  141.4280  156.4280 C.3     1  UNL1        0.0512
     25 C         145.6175  142.4741  157.5028 C.3     1  UNL1        0.2072
     26 C         141.1827  141.5217  169.5503 C.3     1  UNL1        0.1557
     27 C         141.9455  142.6986  170.0826 C.3     1  UNL1        0.1110
     28 C         143.1864  141.8594  170.1599 C.3     1  UNL1        0.0314
     29 C         140.7045  143.5377  170.0054 C.3     1  UNL1        0.0314
     30 O         142.7082  143.8754  170.6149 O.3     1  UNL1       -0.3848
     31 H         143.6291  143.6175  170.7768 H       1  UNL1        0.2103
@<TRIPOS>BOND
     1    24    25    1
     2    25    23    1
     3    23    13    1
     4    13    14   ar
     5    14    15   ar
     6    15    16   ar
     7    16    17   ar
     8    17    18   ar
     9    18     1    1
    10     1     2   ar
    11     2     3   ar
    12     3    26    1
    13    26    27    1
    14    27    28    1
    15    27    29    1
    16    27    30    1
    17     3     4   ar
    18     4     5   ar
    19     5     6   ar
    20     6     7   ar
    21     7     8   ar
    22     8     9    1
    23     8    10   ar
    24    18    19   ar
    25    19    20   ar
    26    20    21   ar
    27    21    22   ar
    28    22    13   ar
    29    21    16   ar
    30    10     1   ar
    31    10     4   ar
    32    30    31    1
    33     9    11    1
    34     9    12    1
