@<TRIPOS>MOLECULE
*****
 25 26 0 0 0
SMALL
GASTEIGER

@<TRIPOS>ATOM
      1 N         143.0443  141.6891  164.8438 N.pl3   1  UNL1       -0.1842
      2 C         142.9544  141.2479  166.2747 C.ar    1  UNL1        0.0795
      3 C         143.1190  142.2487  167.3799 C.ar    1  UNL1        0.0208
      4 C         143.0290  141.8075  168.8106 C.ar    1  UNL1        0.0727
      5 C         142.7745  140.3655  169.1363 C.ar    1  UNL1        0.0048
      6 C         142.6100  139.3648  168.0312 C.ar    1  UNL1        0.0126
      7 C         142.6999  139.8060  166.6004 C.ar    1  UNL1        0.0725
      8 CL        142.5354  138.8052  165.4951 Cl      1  UNL1       -0.0809
      9 C         143.1936  142.8082  169.9159 C.3     1  UNL1        0.4186
     10 F         143.3582  143.8089  171.0211 F       1  UNL1       -0.1659
     11 F         144.6441  142.4438  170.0298 F       1  UNL1       -0.1659
     12 F         141.7430  143.1726  169.8020 F       1  UNL1       -0.1659
     13 C         145.6924  141.6767  163.4340 C.3     1  UNL1        0.1999
     14 S         144.3684  141.6829  164.1389 S.O2    1  UNL1        0.0592
     15 O         143.9363  140.4906  163.3379 O.2     1  UNL1       -0.1542
     16 O         144.8004  142.8752  164.9400 O.2     1  UNL1       -0.1542
     17 C         141.8103  142.1364  164.1179 C.3     1  UNL1        0.1999
     18 C         140.4555  141.7491  164.6325 C.2     1  UNL1        0.2445
     19 O         139.7530  142.6241  165.6279 O.2     1  UNL1       -0.2732
     20 N         139.8034  140.4867  164.1518 N.am    1  UNL1       -0.3029
     21 H         140.2645  139.9124  163.4985 H       1  UNL1        0.1495
     22 C         138.4488  140.0995  164.6663 C.3     1  UNL1        0.0894
     23 C         138.3131  139.4675  166.0200 C.3     1  UNL1        0.0196
     24 C         138.7266  139.3779  167.4591 C.3     1  UNL1        0.0017
     25 C         137.6648  138.4627  166.9255 C.3     1  UNL1        0.0017
@<TRIPOS>BOND
     1    13    14    1
     2    14    15    2
     3    14    16    2
     4    14     1    1
     5     1    17    1
     6    17    18    1
     7    18    19    2
     8    18    20   am
     9    20    22    1
    10    22    23    1
    11    23    24    1
    12    24    25    1
    13     1     2    1
    14     2     3   ar
    15     3     4   ar
    16     4     9    1
    17     9    10    1
    18     9    11    1
    19     9    12    1
    20     4     5   ar
    21     5     6   ar
    22     6     7   ar
    23     7     8    1
    24    25    23    1
    25     7     2   ar
    26    20    21    1
@<TRIPOS>MOLECULE
*****
 25 26 0 0 0
SMALL
GASTEIGER

@<TRIPOS>ATOM
      1 N         143.2642  140.2286  164.6338 N.pl3   1  UNL1       -0.1842
      2 C         142.8269  140.3077  166.0665 C.ar    1  UNL1        0.0795
      3 C         142.0831  141.5139  166.5582 C.ar    1  UNL1        0.0208
      4 C         141.6458  141.5929  167.9908 C.ar    1  UNL1        0.0727
      5 C         141.9524  140.4657  168.9318 C.ar    1  UNL1        0.0048
      6 C         142.6962  139.2595  168.4401 C.ar    1  UNL1        0.0126
      7 C         143.1334  139.1805  167.0075 C.ar    1  UNL1        0.0725
      8 CL        143.8772  137.9742  166.5157 Cl      1  UNL1       -0.0809
      9 C         140.9020  142.7991  168.4825 C.3     1  UNL1        0.4186
     10 F         140.1582  144.0053  168.9742 F       1  UNL1       -0.1659
     11 F         140.0950  142.8168  167.2183 F       1  UNL1       -0.1659
     12 F         141.7090  142.7815  169.7468 F       1  UNL1       -0.1659
     13 C         145.7545  141.6459  163.7452 C.3     1  UNL1        0.1999
     14 S         144.5093  140.9373  164.1895 S.O2    1  UNL1        0.0592
     15 O         143.7211  142.1980  163.9916 O.2     1  UNL1       -0.1542
     16 O         145.2975  139.6765  164.3874 O.2     1  UNL1       -0.1542
     17 C         142.4563  139.4409  163.6454 C.3     1  UNL1        0.1999
     18 C         141.1500  138.8314  164.0606 C.2     1  UNL1        0.2445
     19 O         141.0868  137.3828  164.4447 O.2     1  UNL1       -0.2732
     20 N         139.9071  139.6706  164.0916 N.am    1  UNL1       -0.3029
     21 H         139.9486  140.6213  163.8394 H       1  UNL1        0.1495
     22 C         138.6009  139.0611  164.5067 C.3     1  UNL1        0.0894
     23 C         138.2766  138.9019  165.9626 C.3     1  UNL1        0.0196
     24 C         138.5194  139.2726  167.3957 C.3     1  UNL1        0.0017
     25 C         137.4721  138.2555  167.0511 C.3     1  UNL1        0.0017
@<TRIPOS>BOND
     1    13    14    1
     2    14    15    2
     3    14    16    2
     4    14     1    1
     5     1    17    1
     6    17    18    1
     7    18    19    2
     8    18    20   am
     9    20    22    1
    10    22    23    1
    11    23    24    1
    12    24    25    1
    13     1     2    1
    14     2     3   ar
    15     3     4   ar
    16     4     9    1
    17     9    10    1
    18     9    11    1
    19     9    12    1
    20     4     5   ar
    21     5     6   ar
    22     6     7   ar
    23     7     8    1
    24    25    23    1
    25     7     2   ar
    26    20    21    1
@<TRIPOS>MOLECULE
*****
 25 26 0 0 0
SMALL
GASTEIGER

@<TRIPOS>ATOM
      1 N         141.0852  141.9857  167.8492 N.pl3   1  UNL1       -0.1842
      2 C         140.0783  141.3870  166.9123 C.ar    1  UNL1        0.0795
      3 C         139.5466  140.0073  167.1646 C.ar    1  UNL1        0.0208
      4 C         138.5398  139.4087  166.2276 C.ar    1  UNL1        0.0727
      5 C         138.0647  140.1897  165.0384 C.ar    1  UNL1        0.0048
      6 C         138.5964  141.5694  164.7861 C.ar    1  UNL1        0.0126
      7 C         139.6032  142.1680  165.7230 C.ar    1  UNL1        0.0725
      8 CL        140.1350  143.5478  165.4708 Cl      1  UNL1       -0.0809
      9 C         138.0080  138.0289  166.4799 C.3     1  UNL1        0.4186
     10 F         137.4762  136.6493  166.7322 F       1  UNL1       -0.1659
     11 F         137.1398  138.5647  167.5795 F       1  UNL1       -0.1659
     12 F         138.8762  137.4932  165.3803 F       1  UNL1       -0.1659
     13 C         140.2531  142.8307  170.6049 C.3     1  UNL1        0.1999
     14 S         140.6691  142.4082  169.2271 S.O2    1  UNL1        0.0592
     15 O         140.0334  143.6414  168.6569 O.2     1  UNL1       -0.1542
     16 O         141.3049  141.1750  169.7972 O.2     1  UNL1       -0.1542
     17 C         142.5080  142.1619  167.4084 C.3     1  UNL1        0.1999
     18 C         143.0354  141.3763  166.2444 C.2     1  UNL1        0.2445
     19 O         143.3911  142.0764  164.9664 O.2     1  UNL1       -0.2732
     20 N         143.2070  139.8905  166.3584 N.am    1  UNL1       -0.3029
     21 H         142.9735  139.4310  167.1972 H       1  UNL1        0.1495
     22 C         143.7343  139.1050  165.1945 C.3     1  UNL1        0.0894
     23 C         142.8067  138.6790  164.0952 C.3     1  UNL1        0.0196
     24 C         141.4203  138.5770  163.5319 C.3     1  UNL1        0.0017
     25 C         142.5868  138.0432  162.7546 C.3     1  UNL1        0.0017
@<TRIPOS>BOND
     1    13    14    1
     2    14    15    2
     3    14    16    2
     4    14     1    1
     5     1    17    1
     6    17    18    1
     7    18    19    2
     8    18    20   am
     9    20    22    1
    10    22    23    1
    11    23    24    1
    12    24    25    1
    13     1     2    1
    14     2     3   ar
    15     3     4   ar
    16     4     9    1
    17     9    10    1
    18     9    11    1
    19     9    12    1
    20     4     5   ar
    21     5     6   ar
    22     6     7   ar
    23     7     8    1
    24    25    23    1
    25     7     2   ar
    26    20    21    1
@<TRIPOS>MOLECULE
*****
 25 26 0 0 0
SMALL
GASTEIGER

@<TRIPOS>ATOM
      1 N         142.4055  139.7772  165.5838 N.pl3   1  UNL1       -0.1842
      2 C         141.0064  140.2470  165.3155 C.ar    1  UNL1        0.0795
      3 C         140.6763  141.7076  165.4014 C.ar    1  UNL1        0.0208
      4 C         139.2773  142.1773  165.1331 C.ar    1  UNL1        0.0727
      5 C         138.2084  141.1864  164.7788 C.ar    1  UNL1        0.0048
      6 C         138.5385  139.7257  164.6929 C.ar    1  UNL1        0.0126
      7 C         139.9375  139.2560  164.9613 C.ar    1  UNL1        0.0725
      8 CL        140.2677  137.7953  164.8754 Cl      1  UNL1       -0.0809
      9 C         138.9471  143.6381  165.2189 C.3     1  UNL1        0.4186
     10 F         138.6169  145.0987  165.3048 F       1  UNL1       -0.1659
     11 F         138.0734  143.5118  164.0062 F       1  UNL1       -0.1659
     12 F         139.8208  143.7643  166.4316 F       1  UNL1       -0.1659
     13 C         144.5051  140.0248  163.4553 C.3     1  UNL1        0.1999
     14 S         143.4553  139.9010  164.5195 S.O2    1  UNL1        0.0592
     15 O         143.0918  138.5406  164.0027 O.2     1  UNL1       -0.1542
     16 O         143.8188  141.2614  165.0364 O.2     1  UNL1       -0.1542
     17 C         142.7548  139.1836  166.9163 C.3     1  UNL1        0.1999
     18 C         142.5748  139.9912  168.1675 C.2     1  UNL1        0.2445
     19 O         142.0629  139.3359  169.4160 O.2     1  UNL1       -0.2732
     20 N         142.9066  141.4540  168.1703 N.am    1  UNL1       -0.3029
     21 H         143.2425  141.8841  167.3509 H       1  UNL1        0.1495
     22 C         142.7266  142.2615  169.4214 C.3     1  UNL1        0.0894
     23 C         141.3859  142.8499  169.7480 C.3     1  UNL1        0.0196
     24 C         140.4901  144.0454  169.8837 C.3     1  UNL1        0.0017
     25 C         139.9597  142.6735  170.1777 C.3     1  UNL1        0.0017
@<TRIPOS>BOND
     1    13    14    1
     2    14    15    2
     3    14    16    2
     4    14     1    1
     5     1    17    1
     6    17    18    1
     7    18    19    2
     8    18    20   am
     9    20    22    1
    10    22    23    1
    11    23    24    1
    12    24    25    1
    13     1     2    1
    14     2     3   ar
    15     3     4   ar
    16     4     9    1
    17     9    10    1
    18     9    11    1
    19     9    12    1
    20     4     5   ar
    21     5     6   ar
    22     6     7   ar
    23     7     8    1
    24    25    23    1
    25     7     2   ar
    26    20    21    1
@<TRIPOS>MOLECULE
*****
 25 26 0 0 0
SMALL
GASTEIGER

@<TRIPOS>ATOM
      1 N         140.3386  140.0218  166.8044 N.pl3   1  UNL1       -0.1842
      2 C         139.5000  140.2259  165.5775 C.ar    1  UNL1        0.0795
      3 C         139.0250  141.6015  165.2140 C.ar    1  UNL1        0.0208
      4 C         138.1864  141.8055  163.9872 C.ar    1  UNL1        0.0727
      5 C         137.8229  140.6340  163.1239 C.ar    1  UNL1        0.0048
      6 C         138.2978  139.2585  163.4873 C.ar    1  UNL1        0.0126
      7 C         139.1364  139.0544  164.7141 C.ar    1  UNL1        0.0725
      8 CL        139.6114  137.6788  165.0777 Cl      1  UNL1       -0.0809
      9 C         137.7114  143.1812  163.6237 C.3     1  UNL1        0.4186
     10 F         137.2364  144.5567  163.2602 F       1  UNL1       -0.1659
     11 F         137.9370  143.6323  165.0363 F       1  UNL1       -0.1659
     12 F         137.4858  142.7300  162.2111 F       1  UNL1       -0.1659
     13 C         139.1509  140.4636  169.5236 C.3     1  UNL1        0.1999
     14 S         139.7447  140.2427  168.1640 S.O2    1  UNL1        0.0592
     15 O         140.7875  141.2821  168.4506 O.2     1  UNL1       -0.1542
     16 O         138.7019  139.2033  167.8774 O.2     1  UNL1       -0.1542
     17 C         141.7709  139.5968  166.6716 C.3     1  UNL1        0.1999
     18 C         142.7177  140.4028  165.8325 C.2     1  UNL1        0.2445
     19 O         143.3899  139.7752  164.6475 O.2     1  UNL1       -0.2732
     20 N         142.9923  141.8362  166.1785 N.am    1  UNL1       -0.3029
     21 H         142.5511  142.2481  166.9563 H       1  UNL1        0.1495
     22 C         143.9391  142.6421  165.3394 C.3     1  UNL1        0.0894
     23 C         143.4273  143.7968  164.5302 C.3     1  UNL1        0.0196
     24 C         142.2808  144.5579  163.9333 C.3     1  UNL1        0.0017
     25 C         143.6874  145.0356  163.7254 C.3     1  UNL1        0.0017
@<TRIPOS>BOND
     1    13    14    1
     2    14    15    2
     3    14    16    2
     4    14     1    1
     5     1    17    1
     6    17    18    1
     7    18    19    2
     8    18    20   am
     9    20    22    1
    10    22    23    1
    11    23    24    1
    12    24    25    1
    13     1     2    1
    14     2     3   ar
    15     3     4   ar
    16     4     9    1
    17     9    10    1
    18     9    11    1
    19     9    12    1
    20     4     5   ar
    21     5     6   ar
    22     6     7   ar
    23     7     8    1
    24    25    23    1
    25     7     2   ar
    26    20    21    1
@<TRIPOS>MOLECULE
*****
 25 26 0 0 0
SMALL
GASTEIGER

@<TRIPOS>ATOM
      1 N         141.8400  140.0220  166.8716 N.pl3   1  UNL1       -0.1842
      2 C         142.8734  140.6521  165.9855 C.ar    1  UNL1        0.0795
      3 C         143.0052  142.1453  165.9313 C.ar    1  UNL1        0.0208
      4 C         144.0386  142.7753  165.0453 C.ar    1  UNL1        0.0727
      5 C         144.9403  141.9122  164.2135 C.ar    1  UNL1        0.0048
      6 C         144.8085  140.4190  164.2677 C.ar    1  UNL1        0.0126
      7 C         143.7751  139.7890  165.1537 C.ar    1  UNL1        0.0725
      8 CL        143.6433  138.2957  165.2080 Cl      1  UNL1       -0.0809
      9 C         144.1704  144.2686  164.9910 C.3     1  UNL1        0.4186
     10 F         144.3021  145.7618  164.9367 F       1  UNL1       -0.1659
     11 F         143.0743  144.3281  163.9688 F       1  UNL1       -0.1659
     12 F         145.2665  144.2091  166.0132 F       1  UNL1       -0.1659
     13 C         142.0646  140.2745  169.8525 C.3     1  UNL1        0.1999
     14 S         141.9523  140.1483  168.3620 S.O2    1  UNL1        0.0592
     15 O         140.8480  141.1635  168.3592 O.2     1  UNL1       -0.1542
     16 O         143.0565  139.1331  168.3648 O.2     1  UNL1       -0.1542
     17 C         140.6943  139.2657  166.2671 C.3     1  UNL1        0.1999
     18 C         139.7431  139.9611  165.3388 C.2     1  UNL1        0.2445
     19 O         139.3218  139.2972  164.0613 O.2     1  UNL1       -0.2732
     20 N         139.2131  141.3202  165.6879 N.am    1  UNL1       -0.3029
     21 H         139.4896  141.7559  166.5263 H       1  UNL1        0.1495
     22 C         138.2620  142.0154  164.7595 C.3     1  UNL1        0.0894
     23 C         138.4490  143.4703  164.4456 C.3     1  UNL1        0.0196
     24 C         138.8005  144.8599  164.8877 C.3     1  UNL1        0.0017
     25 C         138.4214  144.6005  163.4598 C.3     1  UNL1        0.0017
@<TRIPOS>BOND
     1    13    14    1
     2    14    15    2
     3    14    16    2
     4    14     1    1
     5     1    17    1
     6    17    18    1
     7    18    19    2
     8    18    20   am
     9    20    22    1
    10    22    23    1
    11    23    24    1
    12    24    25    1
    13     1     2    1
    14     2     3   ar
    15     3     4   ar
    16     4     9    1
    17     9    10    1
    18     9    11    1
    19     9    12    1
    20     4     5   ar
    21     5     6   ar
    22     6     7   ar
    23     7     8    1
    24    25    23    1
    25     7     2   ar
    26    20    21    1
@<TRIPOS>MOLECULE
*****
 25 26 0 0 0
SMALL
GASTEIGER

@<TRIPOS>ATOM
      1 N         143.0125  140.6657  164.7536 N.pl3   1  UNL1       -0.1842
      2 C         142.6628  140.6434  166.2121 C.ar    1  UNL1        0.0795
      3 C         142.0211  141.8409  166.8479 C.ar    1  UNL1        0.0208
      4 C         141.6714  141.8186  168.3064 C.ar    1  UNL1        0.0727
      5 C         141.9634  140.5988  169.1291 C.ar    1  UNL1        0.0048
      6 C         142.6051  139.4013  168.4933 C.ar    1  UNL1        0.0126
      7 C         142.9548  139.4236  167.0349 C.ar    1  UNL1        0.0725
      8 CL        143.5965  138.2261  166.3990 Cl      1  UNL1       -0.0809
      9 C         141.0297  143.0161  168.9422 C.3     1  UNL1        0.4186
     10 F         140.3880  144.2136  169.5780 F       1  UNL1       -0.1659
     11 F         140.2028  143.2278  167.7088 F       1  UNL1       -0.1659
     12 F         141.8566  142.8044  170.1756 F       1  UNL1       -0.1659
     13 C         145.7500  141.5283  163.8805 C.3     1  UNL1        0.1999
     14 S         144.3812  141.0970  164.3170 S.O2    1  UNL1        0.0592
     15 O         144.7021  139.6844  163.9275 O.2     1  UNL1       -0.1542
     16 O         144.0604  142.5095  164.7066 O.2     1  UNL1       -0.1542
     17 C         141.9935  140.2567  163.7317 C.3     1  UNL1        0.1999
     18 C         140.8847  141.1963  163.3604 C.2     1  UNL1        0.2445
     19 O         139.5619  140.6534  162.9071 O.2     1  UNL1       -0.2732
     20 N         141.0988  142.6787  163.4423 N.am    1  UNL1       -0.3029
     21 H         141.9670  143.0349  163.7397 H       1  UNL1        0.1495
     22 C         139.9900  143.6182  163.0710 C.3     1  UNL1        0.0894
     23 C         139.0223  144.0869  164.1168 C.3     1  UNL1        0.0196
     24 C         138.7190  144.9232  165.3246 C.3     1  UNL1        0.0017
     25 C         137.6494  144.0624  164.7206 C.3     1  UNL1        0.0017
@<TRIPOS>BOND
     1    13    14    1
     2    14    15    2
     3    14    16    2
     4    14     1    1
     5     1    17    1
     6    17    18    1
     7    18    19    2
     8    18    20   am
     9    20    22    1
    10    22    23    1
    11    23    24    1
    12    24    25    1
    13     1     2    1
    14     2     3   ar
    15     3     4   ar
    16     4     9    1
    17     9    10    1
    18     9    11    1
    19     9    12    1
    20     4     5   ar
    21     5     6   ar
    22     6     7   ar
    23     7     8    1
    24    25    23    1
    25     7     2   ar
    26    20    21    1
@<TRIPOS>MOLECULE
*****
 25 26 0 0 0
SMALL
GASTEIGER

@<TRIPOS>ATOM
      1 N         139.5865  142.1006  164.3059 N.pl3   1  UNL1       -0.1842
      2 C         139.6893  141.6535  165.7341 C.ar    1  UNL1        0.0795
      3 C         140.3948  142.5136  166.7403 C.ar    1  UNL1        0.0208
      4 C         140.4975  142.0665  168.1684 C.ar    1  UNL1        0.0727
      5 C         139.8948  140.7593  168.5902 C.ar    1  UNL1        0.0048
      6 C         139.1893  139.8992  167.5840 C.ar    1  UNL1        0.0126
      7 C         139.0866  140.3463  166.1559 C.ar    1  UNL1        0.0725
      8 CL        138.3810  139.4862  165.1496 Cl      1  UNL1       -0.0809
      9 C         141.2030  142.9265  169.1747 C.3     1  UNL1        0.4186
     10 F         141.9085  143.7866  170.1809 F       1  UNL1       -0.1659
     11 F         140.1048  143.9433  169.0756 F       1  UNL1       -0.1659
     12 F         142.3013  141.9097  169.2738 F       1  UNL1       -0.1659
     13 C         137.6556  144.2680  163.5480 C.3     1  UNL1        0.1999
     14 S         138.6211  143.1843  163.9269 S.O2    1  UNL1        0.0592
     15 O         139.7350  144.1883  163.9601 O.2     1  UNL1       -0.1542
     16 O         137.5071  142.1803  163.8938 O.2     1  UNL1       -0.1542
     17 C         140.4491  141.4641  163.2568 C.3     1  UNL1        0.1999
     18 C         141.6682  140.6875  163.6580 C.2     1  UNL1        0.2445
     19 O         142.9557  141.4046  163.9375 O.2     1  UNL1       -0.2732
     20 N         141.5997  139.1941  163.7795 N.am    1  UNL1       -0.3029
     21 H         140.7547  138.7235  163.5960 H       1  UNL1        0.1495
     22 C         142.8188  138.4176  164.1807 C.3     1  UNL1        0.0894
     23 C         143.2394  138.3727  165.6198 C.3     1  UNL1        0.0196
     24 C         143.1050  138.8698  167.0287 C.3     1  UNL1        0.0017
     25 C         144.1024  137.7977  166.7036 C.3     1  UNL1        0.0017
@<TRIPOS>BOND
     1    13    14    1
     2    14    15    2
     3    14    16    2
     4    14     1    1
     5     1    17    1
     6    17    18    1
     7    18    19    2
     8    18    20   am
     9    20    22    1
    10    22    23    1
    11    23    24    1
    12    24    25    1
    13     1     2    1
    14     2     3   ar
    15     3     4   ar
    16     4     9    1
    17     9    10    1
    18     9    11    1
    19     9    12    1
    20     4     5   ar
    21     5     6   ar
    22     6     7   ar
    23     7     8    1
    24    25    23    1
    25     7     2   ar
    26    20    21    1
@<TRIPOS>MOLECULE
*****
 25 26 0 0 0
SMALL
GASTEIGER

@<TRIPOS>ATOM
      1 N         139.4270  139.1944  165.0959 N.pl3   1  UNL1       -0.1842
      2 C         138.8478  140.4391  164.4913 C.ar    1  UNL1        0.0795
      3 C         138.9307  141.7411  165.2314 C.ar    1  UNL1        0.0208
      4 C         138.3515  142.9856  164.6268 C.ar    1  UNL1        0.0727
      5 C         137.6894  142.9282  163.2821 C.ar    1  UNL1        0.0048
      6 C         137.6065  141.6261  162.5420 C.ar    1  UNL1        0.0126
      7 C         138.1857  140.3816  163.1466 C.ar    1  UNL1        0.0725
      8 CL        138.1028  139.0795  162.4064 Cl      1  UNL1       -0.0809
      9 C         138.4344  144.2877  165.3670 C.3     1  UNL1        0.4186
     10 F         138.5173  145.5898  166.1071 F       1  UNL1       -0.1659
     11 F         137.2184  144.7789  164.6389 F       1  UNL1       -0.1659
     12 F         139.6504  143.7965  166.0950 F       1  UNL1       -0.1659
     13 C         137.6932  137.3763  166.7356 C.3     1  UNL1        0.1999
     14 S         138.5601  138.2854  165.9158 S.O2    1  UNL1        0.0592
     15 O         138.6980  137.2146  164.8744 O.2     1  UNL1       -0.1542
     16 O         138.4222  139.3561  166.9572 O.2     1  UNL1       -0.1542
     17 C         140.8730  138.8589  164.8806 C.3     1  UNL1        0.1999
     18 C         141.8427  138.9530  166.0213 C.2     1  UNL1        0.2445
     19 O         143.0949  138.1274  166.0111 O.2     1  UNL1       -0.2732
     20 N         141.5601  139.8728  167.1719 N.am    1  UNL1       -0.3029
     21 H         140.7381  140.4147  167.1786 H       1  UNL1        0.1495
     22 C         142.5297  139.9669  168.3125 C.3     1  UNL1        0.0894
     23 C         142.7535  141.2811  169.0001 C.3     1  UNL1        0.0196
     24 C         143.6870  142.3455  169.4959 C.3     1  UNL1        0.0017
     25 C         142.2077  142.4930  169.6954 C.3     1  UNL1        0.0017
@<TRIPOS>BOND
     1    13    14    1
     2    14    15    2
     3    14    16    2
     4    14     1    1
     5     1    17    1
     6    17    18    1
     7    18    19    2
     8    18    20   am
     9    20    22    1
    10    22    23    1
    11    23    24    1
    12    24    25    1
    13     1     2    1
    14     2     3   ar
    15     3     4   ar
    16     4     9    1
    17     9    10    1
    18     9    11    1
    19     9    12    1
    20     4     5   ar
    21     5     6   ar
    22     6     7   ar
    23     7     8    1
    24    25    23    1
    25     7     2   ar
    26    20    21    1
