@<TRIPOS>MOLECULE
*****
 33 38 0 0 0
SMALL
GASTEIGER

@<TRIPOS>ATOM
      1 C         138.9771  141.0469  161.1091 C.2     1  UNL1        0.0866
      2 N         137.9732  139.9868  160.7651 N.2     1  UNL1       -0.1523
      3 N         137.6185  139.2573  162.0269 N.2     1  UNL1       -0.1523
      4 C         138.4033  139.8666  163.1508 C.2     1  UNL1        0.0858
      5 C         139.2429  140.9726  162.5835 C.3     1  UNL1        0.0883
      6 C         140.0277  141.5818  163.7073 C.3     1  UNL1        0.0384
      7 C         139.6730  140.8524  164.9691 C.ar    1  UNL1       -0.0205
      8 C         140.1346  141.0166  166.3868 C.ar    1  UNL1       -0.0065
      9 C         139.5922  140.1206  167.4606 C.ar    1  UNL1        0.0019
     10 C         138.5882  139.0605  167.1167 C.ar    1  UNL1       -0.0023
     11 C         138.1267  138.8964  165.6989 C.ar    1  UNL1        0.0007
     12 C         138.6691  139.7923  164.6252 C.ar    1  UNL1        0.0117
     13 C         139.9149  143.5692  158.3120 C.ar    1  UNL1        0.0710
     14 C         138.9121  142.6963  159.0067 C.ar    1  UNL1        0.0165
     15 C         139.6050  142.0118  160.1475 C.ar    1  UNL1        0.0233
     16 C         141.0359  142.4616  160.1579 C.ar    1  UNL1        0.0373
     17 S         141.2274  143.4242  159.0235 S.2     1  UNL1       -0.0780
     18 C         139.3879  145.3010  155.9197 C.1     1  UNL1       -0.0388
     19 C         139.6514  144.4351  157.1158 C.1     1  UNL1       -0.0543
     20 C         139.1243  146.1669  154.7235 C.3     1  UNL1        0.2814
     21 O         140.0504  147.3020  154.4007 O.3     1  UNL1       -0.4612
     22 C         139.5957  148.7185  154.5922 C.ar    1  UNL1        0.1400
     23 C         139.9631  149.7669  153.5845 C.ar    1  UNL1        0.0369
     24 C         139.5085  151.1835  153.7760 C.ar    1  UNL1        0.0031
     25 C         138.6863  151.5516  154.9754 C.ar    1  UNL1        0.0002
     26 C         138.3188  150.5031  155.9833 C.ar    1  UNL1        0.0031
     27 C         138.7735  149.0866  155.7917 C.ar    1  UNL1        0.0369
     28 C         140.0537  140.2848  168.8784 C.3     1  UNL1        0.1556
     29 N         139.9929  141.6317  169.5358 N.ar    1  UNL1       -0.2257
     30 C         140.7801  142.8443  169.1358 C.ar    1  UNL1        0.1196
     31 C         140.4080  143.9645  170.0614 C.ar    1  UNL1        0.1441
     32 N         139.3908  143.4443  171.0333 N.ar    1  UNL1       -0.1271
     33 N         139.1343  142.0025  170.7085 N.ar    1  UNL1       -0.0634
@<TRIPOS>BOND
     1    18    19    3
     2    19    13    1
     3    13    14   ar
     4    14    15   ar
     5    15     1    1
     6     1     2    2
     7     2     3    1
     8     3     4    2
     9     4     5    1
    10     5     6    1
    11     6     7    1
    12     7     8   ar
    13     8     9   ar
    14     9    28    1
    15    28    29    1
    16    29    30   ar
    17    30    31   ar
    18    31    32   ar
    19    32    33   ar
    20     9    10   ar
    21    10    11   ar
    22    11    12   ar
    23    15    16   ar
    24    16    17   ar
    25    18    20    1
    26    20    21    1
    27    21    22    1
    28    22    23   ar
    29    23    24   ar
    30    24    25   ar
    31    25    26   ar
    32    26    27   ar
    33    17    13   ar
    34    27    22   ar
    35     5     1    1
    36    12     7   ar
    37    12     4    1
    38    33    29   ar
@<TRIPOS>MOLECULE
*****
 33 38 0 0 0
SMALL
GASTEIGER

@<TRIPOS>ATOM
      1 C         142.5504  141.9623  161.6948 C.2     1  UNL1        0.0866
      2 N         143.4172  140.9892  160.9520 N.2     1  UNL1       -0.1523
      3 N         143.8734  139.9402  161.9223 N.2     1  UNL1       -0.1523
      4 C         143.2885  140.2650  163.2649 C.2     1  UNL1        0.0858
      5 C         142.4708  141.5147  163.1242 C.3     1  UNL1        0.0883
      6 C         141.8859  141.8394  164.4668 C.3     1  UNL1        0.0384
      7 C         142.3421  140.7904  165.4372 C.ar    1  UNL1       -0.0205
      8 C         142.0801  140.5956  166.9012 C.ar    1  UNL1       -0.0065
      9 C         142.6850  139.4277  167.6224 C.ar    1  UNL1        0.0019
     10 C         143.5518  138.4547  166.8795 C.ar    1  UNL1       -0.0023
     11 C         143.8138  138.6495  165.4155 C.ar    1  UNL1        0.0007
     12 C         143.2089  139.8174  164.6943 C.ar    1  UNL1        0.0117
     13 C         141.0221  144.7921  159.5218 C.ar    1  UNL1        0.0710
     14 C         141.7653  143.4955  159.6508 C.ar    1  UNL1        0.0165
     15 C         141.8807  143.1707  161.1107 C.ar    1  UNL1        0.0233
     16 C         141.2089  144.2665  161.8839 C.ar    1  UNL1        0.0373
     17 S         140.6782  145.2686  160.9019 S.2     1  UNL1       -0.0780
     18 C         140.3429  146.1874  156.9543 C.1     1  UNL1       -0.0388
     19 C         140.6825  145.4897  158.2381 C.1     1  UNL1       -0.0543
     20 C         140.0032  146.8850  155.6706 C.3     1  UNL1        0.2814
     21 O         138.8128  147.7952  155.6038 O.3     1  UNL1       -0.4612
     22 C         138.9711  149.2018  155.1076 C.ar    1  UNL1        0.1400
     23 C         138.4006  150.3437  155.8953 C.ar    1  UNL1        0.0369
     24 C         138.5590  151.7504  155.3991 C.ar    1  UNL1        0.0031
     25 C         139.2878  152.0152  154.1151 C.ar    1  UNL1        0.0002
     26 C         139.8584  150.8732  153.3273 C.ar    1  UNL1        0.0031
     27 C         139.7000  149.4666  153.8235 C.ar    1  UNL1        0.0369
     28 C         142.4230  139.2329  169.0864 C.3     1  UNL1        0.1556
     29 N         141.4542  140.1280  169.8006 N.ar    1  UNL1       -0.2257
     30 C         141.7979  141.3853  170.5429 C.ar    1  UNL1        0.1196
     31 C         140.5277  141.9574  171.0990 C.ar    1  UNL1        0.1441
     32 N         139.3988  141.0536  170.7004 N.ar    1  UNL1       -0.1271
     33 N         139.9714  139.9230  169.8980 N.ar    1  UNL1       -0.0634
@<TRIPOS>BOND
     1    18    19    3
     2    19    13    1
     3    13    14   ar
     4    14    15   ar
     5    15     1    1
     6     1     2    2
     7     2     3    1
     8     3     4    2
     9     4     5    1
    10     5     6    1
    11     6     7    1
    12     7     8   ar
    13     8     9   ar
    14     9    28    1
    15    28    29    1
    16    29    30   ar
    17    30    31   ar
    18    31    32   ar
    19    32    33   ar
    20     9    10   ar
    21    10    11   ar
    22    11    12   ar
    23    15    16   ar
    24    16    17   ar
    25    18    20    1
    26    20    21    1
    27    21    22    1
    28    22    23   ar
    29    23    24   ar
    30    24    25   ar
    31    25    26   ar
    32    26    27   ar
    33    17    13   ar
    34    27    22   ar
    35     5     1    1
    36    12     7   ar
    37    12     4    1
    38    33    29   ar
@<TRIPOS>MOLECULE
*****
 33 38 0 0 0
SMALL
GASTEIGER

@<TRIPOS>ATOM
      1 C         139.6744  138.8939  162.3944 C.2     1  UNL1        0.0866
      2 N         138.9810  137.6141  162.7569 N.2     1  UNL1       -0.1523
      3 N         138.7360  137.6226  164.2367 N.2     1  UNL1       -0.1523
      4 C         139.2781  138.9078  164.7889 C.2     1  UNL1        0.0858
      5 C         139.8580  139.6934  163.6502 C.3     1  UNL1        0.0883
      6 C         140.3999  140.9785  164.2024 C.3     1  UNL1        0.0384
      7 C         140.1550  140.9871  165.6822 C.ar    1  UNL1       -0.0205
      8 C         140.4738  141.9949  166.7465 C.ar    1  UNL1       -0.0065
      9 C         140.0992  141.7229  168.1732 C.ar    1  UNL1        0.0019
     10 C         139.4058  140.4431  168.5357 C.ar    1  UNL1       -0.0023
     11 C         139.0870  139.4353  167.4714 C.ar    1  UNL1        0.0007
     12 C         139.4616  139.7073  166.0447 C.ar    1  UNL1        0.0117
     13 C         141.3095  139.4047  158.9114 C.ar    1  UNL1        0.0710
     14 C         141.2271  138.6907  160.2281 C.ar    1  UNL1        0.0165
     15 C         140.1080  139.3025  161.0178 C.ar    1  UNL1        0.0233
     16 C         139.4989  140.3945  160.1893 C.ar    1  UNL1        0.0373
     17 S         140.2414  140.4576  158.8875 S.2     1  UNL1       -0.0780
     18 C         143.2667  138.8279  156.7122 C.1     1  UNL1       -0.0388
     19 C         142.2881  139.1163  157.8118 C.1     1  UNL1       -0.0543
     20 C         144.2454  138.5396  155.6126 C.3     1  UNL1        0.2814
     21 O         144.7361  137.1391  155.3936 O.3     1  UNL1       -0.4612
     22 C         143.7706  135.9917  155.4304 C.ar    1  UNL1        0.1400
     23 C         142.7566  135.8294  154.3372 C.ar    1  UNL1        0.0369
     24 C         141.7911  134.6820  154.3740 C.ar    1  UNL1        0.0031
     25 C         141.8397  133.6969  155.5042 C.ar    1  UNL1        0.0002
     26 C         142.8538  133.8592  156.5975 C.ar    1  UNL1        0.0031
     27 C         143.8192  135.0066  156.5607 C.ar    1  UNL1        0.0369
     28 C         140.4179  142.7307  169.2376 C.3     1  UNL1        0.1556
     29 N         141.8339  142.9131  169.6978 N.ar    1  UNL1       -0.2257
     30 C         143.0054  142.0633  169.3037 C.ar    1  UNL1        0.1196
     31 C         144.2225  142.6023  169.9953 C.ar    1  UNL1        0.1441
     32 N         143.8031  143.7852  170.8168 N.ar    1  UNL1       -0.1271
     33 N         142.3269  143.9772  170.6330 N.ar    1  UNL1       -0.0634
@<TRIPOS>BOND
     1    18    19    3
     2    19    13    1
     3    13    14   ar
     4    14    15   ar
     5    15     1    1
     6     1     2    2
     7     2     3    1
     8     3     4    2
     9     4     5    1
    10     5     6    1
    11     6     7    1
    12     7     8   ar
    13     8     9   ar
    14     9    28    1
    15    28    29    1
    16    29    30   ar
    17    30    31   ar
    18    31    32   ar
    19    32    33   ar
    20     9    10   ar
    21    10    11   ar
    22    11    12   ar
    23    15    16   ar
    24    16    17   ar
    25    18    20    1
    26    20    21    1
    27    21    22    1
    28    22    23   ar
    29    23    24   ar
    30    24    25   ar
    31    25    26   ar
    32    26    27   ar
    33    17    13   ar
    34    27    22   ar
    35     5     1    1
    36    12     7   ar
    37    12     4    1
    38    33    29   ar
@<TRIPOS>MOLECULE
*****
 33 38 0 0 0
SMALL
GASTEIGER

@<TRIPOS>ATOM
      1 C         140.6921  138.5276  162.2138 C.2     1  UNL1        0.0866
      2 N         139.4978  137.7038  161.8332 N.2     1  UNL1       -0.1523
      3 N         138.5870  137.6304  163.0228 N.2     1  UNL1       -0.1523
      4 C         139.2185  138.4090  164.1387 C.2     1  UNL1        0.0858
      5 C         140.5194  138.9635  163.6387 C.3     1  UNL1        0.0883
      6 C         141.1509  139.7420  164.7545 C.3     1  UNL1        0.0384
      7 C         140.2402  139.6687  165.9442 C.ar    1  UNL1       -0.0205
      8 C         140.3441  140.2456  167.3248 C.ar    1  UNL1       -0.0065
      9 C         139.2538  139.9987  168.3249 C.ar    1  UNL1        0.0019
     10 C         138.0595  139.1749  167.9443 C.ar    1  UNL1       -0.0023
     11 C         137.9555  138.5979  166.5636 C.ar    1  UNL1        0.0007
     12 C         139.0459  138.8448  165.5636 C.ar    1  UNL1        0.0117
     13 C         143.1733  139.6468  159.4468 C.ar    1  UNL1        0.0710
     14 C         141.7765  139.5065  159.9753 C.ar    1  UNL1        0.0165
     15 C         141.8548  138.8578  161.3255 C.ar    1  UNL1        0.0233
     16 C         143.3000  138.5971  161.6315 C.ar    1  UNL1        0.0373
     17 S         144.1148  139.0848  160.4704 S.2     1  UNL1       -0.0780
     18 C         143.9478  140.8416  156.8062 C.1     1  UNL1       -0.0388
     19 C         143.5606  140.2442  158.1265 C.1     1  UNL1       -0.0543
     20 C         144.3351  141.4390  155.4859 C.3     1  UNL1        0.2814
     21 O         145.1409  142.7035  155.4423 O.3     1  UNL1       -0.4612
     22 C         146.5654  142.6693  154.9735 C.ar    1  UNL1        0.1400
     23 C         147.0071  143.5608  153.8511 C.ar    1  UNL1        0.0369
     24 C         148.4316  143.5266  153.3823 C.ar    1  UNL1        0.0031
     25 C         149.4142  142.6009  154.0359 C.ar    1  UNL1        0.0002
     26 C         148.9725  141.7093  155.1584 C.ar    1  UNL1        0.0031
     27 C         147.5481  141.7435  155.6273 C.ar    1  UNL1        0.0369
     28 C         139.3577  140.5757  169.7056 C.3     1  UNL1        0.1556
     29 N         140.2880  141.7220  169.9714 N.ar    1  UNL1       -0.2257
     30 C         141.7583  141.6179  170.2495 C.ar    1  UNL1        0.1196
     31 C         142.2904  143.0051  170.4557 C.ar    1  UNL1        0.1441
     32 N         141.1489  143.9666  170.3051 N.ar    1  UNL1       -0.1271
     33 N         139.9114  143.1735  170.0058 N.ar    1  UNL1       -0.0634
@<TRIPOS>BOND
     1    18    19    3
     2    19    13    1
     3    13    14   ar
     4    14    15   ar
     5    15     1    1
     6     1     2    2
     7     2     3    1
     8     3     4    2
     9     4     5    1
    10     5     6    1
    11     6     7    1
    12     7     8   ar
    13     8     9   ar
    14     9    28    1
    15    28    29    1
    16    29    30   ar
    17    30    31   ar
    18    31    32   ar
    19    32    33   ar
    20     9    10   ar
    21    10    11   ar
    22    11    12   ar
    23    15    16   ar
    24    16    17   ar
    25    18    20    1
    26    20    21    1
    27    21    22    1
    28    22    23   ar
    29    23    24   ar
    30    24    25   ar
    31    25    26   ar
    32    26    27   ar
    33    17    13   ar
    34    27    22   ar
    35     5     1    1
    36    12     7   ar
    37    12     4    1
    38    33    29   ar
@<TRIPOS>MOLECULE
*****
 33 38 0 0 0
SMALL
GASTEIGER

@<TRIPOS>ATOM
      1 C         138.4522  140.1771  159.0223 C.2     1  UNL1        0.0866
      2 N         137.5317  140.5373  157.8940 N.2     1  UNL1       -0.1523
      3 N         138.0493  139.8839  156.6468 N.2     1  UNL1       -0.1523
      4 C         139.2897  139.1198  157.0045 C.2     1  UNL1        0.0858
      5 C         139.5386  139.3011  158.4725 C.3     1  UNL1        0.0883
      6 C         140.7789  138.5370  158.8301 C.3     1  UNL1        0.0384
      7 C         141.2966  137.8836  157.5830 C.ar    1  UNL1       -0.0205
      8 C         142.4871  137.0072  157.3291 C.ar    1  UNL1       -0.0065
      9 C         142.7572  136.4910  155.9469 C.ar    1  UNL1        0.0019
     10 C         141.8367  136.8512  154.8186 C.ar    1  UNL1       -0.0023
     11 C         140.6462  137.7276  155.0725 C.ar    1  UNL1        0.0007
     12 C         140.3761  138.2438  156.4547 C.ar    1  UNL1        0.0117
     13 C         138.1820  140.5816  162.8731 C.ar    1  UNL1        0.0710
     14 C         138.3709  139.7258  161.6556 C.ar    1  UNL1        0.0165
     15 C         138.3110  140.6159  160.4497 C.ar    1  UNL1        0.0233
     16 C         138.0851  142.0216  160.9218 C.ar    1  UNL1        0.0373
     17 S         138.0054  142.0004  162.4195 S.2     1  UNL1       -0.0780
     18 C         138.1611  139.6235  165.7159 C.1     1  UNL1       -0.0388
     19 C         138.1716  140.1026  164.2945 C.1     1  UNL1       -0.0543
     20 C         138.1507  139.1445  167.1373 C.3     1  UNL1        0.2814
     21 O         139.3752  139.2993  167.9899 O.3     1  UNL1       -0.4612
     22 C         139.7177  140.6375  168.5746 C.ar    1  UNL1        0.1400
     23 C         140.5098  141.6262  167.7716 C.ar    1  UNL1        0.0369
     24 C         140.8523  142.9645  168.3562 C.ar    1  UNL1        0.0031
     25 C         140.4028  143.3139  169.7439 C.ar    1  UNL1        0.0002
     26 C         139.6107  142.3251  170.5470 C.ar    1  UNL1        0.0031
     27 C         139.2681  140.9869  169.9624 C.ar    1  UNL1        0.0369
     28 C         143.9477  135.6145  155.6930 C.3     1  UNL1        0.1556
     29 N         143.8941  134.1568  156.0425 N.ar    1  UNL1       -0.2257
     30 C         144.2125  133.5587  157.3808 C.ar    1  UNL1        0.1196
     31 C         144.0278  132.0735  157.2806 C.ar    1  UNL1        0.1441
     32 N         143.5952  131.7536  155.8804 N.ar    1  UNL1       -0.1271
     33 N         143.5126  133.0412  155.1153 N.ar    1  UNL1       -0.0634
@<TRIPOS>BOND
     1    18    19    3
     2    19    13    1
     3    13    14   ar
     4    14    15   ar
     5    15     1    1
     6     1     2    2
     7     2     3    1
     8     3     4    2
     9     4     5    1
    10     5     6    1
    11     6     7    1
    12     7     8   ar
    13     8     9   ar
    14     9    28    1
    15    28    29    1
    16    29    30   ar
    17    30    31   ar
    18    31    32   ar
    19    32    33   ar
    20     9    10   ar
    21    10    11   ar
    22    11    12   ar
    23    15    16   ar
    24    16    17   ar
    25    18    20    1
    26    20    21    1
    27    21    22    1
    28    22    23   ar
    29    23    24   ar
    30    24    25   ar
    31    25    26   ar
    32    26    27   ar
    33    17    13   ar
    34    27    22   ar
    35     5     1    1
    36    12     7   ar
    37    12     4    1
    38    33    29   ar
@<TRIPOS>MOLECULE
*****
 33 38 0 0 0
SMALL
GASTEIGER

@<TRIPOS>ATOM
      1 C         143.0927  141.9505  161.0410 C.2     1  UNL1        0.0866
      2 N         143.7949  143.2748  160.9836 N.2     1  UNL1       -0.1523
      3 N         144.0433  143.7293  162.3913 N.2     1  UNL1       -0.1523
      4 C         143.4945  142.6859  163.3189 C.2     1  UNL1        0.0858
      5 C         142.9070  141.5866  162.4843 C.3     1  UNL1        0.0883
      6 C         142.3582  140.5433  163.4119 C.3     1  UNL1        0.0384
      7 C         142.6065  140.9977  164.8196 C.ar    1  UNL1       -0.0205
      8 C         142.2839  140.3768  166.1464 C.ar    1  UNL1       -0.0065
      9 C         142.6636  141.0802  167.4157 C.ar    1  UNL1        0.0019
     10 C         143.3658  142.4044  167.3582 C.ar    1  UNL1       -0.0023
     11 C         143.6884  143.0253  166.0315 C.ar    1  UNL1        0.0007
     12 C         143.3088  142.3220  164.7622 C.ar    1  UNL1        0.0117
     13 C         142.4660  139.3402  158.2376 C.ar    1  UNL1        0.0710
     14 C         143.1861  139.7857  159.4759 C.ar    1  UNL1        0.0165
     15 C         142.6533  141.1337  159.8622 C.ar    1  UNL1        0.0233
     16 C         141.6040  141.5212  158.8628 C.ar    1  UNL1        0.0373
     17 S         141.4883  140.4128  157.8588 S.2     1  UNL1       -0.0780
     18 C         142.9045  136.7576  156.7756 C.1     1  UNL1       -0.0388
     19 C         142.6853  138.0489  157.5066 C.1     1  UNL1       -0.0543
     20 C         143.1238  135.4662  156.0446 C.3     1  UNL1        0.2814
     21 O         142.4009  134.2259  156.4798 O.3     1  UNL1       -0.4612
     22 C         143.1777  133.0119  156.8953 C.ar    1  UNL1        0.1400
     23 C         142.6782  131.6434  156.5382 C.ar    1  UNL1        0.0369
     24 C         143.4550  130.4294  156.9537 C.ar    1  UNL1        0.0031
     25 C         144.7314  130.5838  157.7262 C.ar    1  UNL1        0.0002
     26 C         145.2311  131.9524  158.0833 C.ar    1  UNL1        0.0031
     27 C         144.4542  133.1664  157.6679 C.ar    1  UNL1        0.0369
     28 C         142.3410  140.4593  168.7426 C.3     1  UNL1        0.1556
     29 N         141.5150  141.2131  169.7424 N.ar    1  UNL1       -0.2257
     30 C         140.3760  142.1370  169.4276 C.ar    1  UNL1        0.1196
     31 C         139.8401  142.6703  170.7232 C.ar    1  UNL1        0.1441
     32 N         140.6479  142.0759  171.8386 N.ar    1  UNL1       -0.1271
     33 N         141.6830  141.1753  171.2324 N.ar    1  UNL1       -0.0634
@<TRIPOS>BOND
     1    18    19    3
     2    19    13    1
     3    13    14   ar
     4    14    15   ar
     5    15     1    1
     6     1     2    2
     7     2     3    1
     8     3     4    2
     9     4     5    1
    10     5     6    1
    11     6     7    1
    12     7     8   ar
    13     8     9   ar
    14     9    28    1
    15    28    29    1
    16    29    30   ar
    17    30    31   ar
    18    31    32   ar
    19    32    33   ar
    20     9    10   ar
    21    10    11   ar
    22    11    12   ar
    23    15    16   ar
    24    16    17   ar
    25    18    20    1
    26    20    21    1
    27    21    22    1
    28    22    23   ar
    29    23    24   ar
    30    24    25   ar
    31    25    26   ar
    32    26    27   ar
    33    17    13   ar
    34    27    22   ar
    35     5     1    1
    36    12     7   ar
    37    12     4    1
    38    33    29   ar
@<TRIPOS>MOLECULE
*****
 33 38 0 0 0
SMALL
GASTEIGER

@<TRIPOS>ATOM
      1 C         139.1197  139.7258  161.8274 C.2     1  UNL1        0.0866
      2 N         138.7614  138.2853  162.0434 N.2     1  UNL1       -0.1523
      3 N         138.7850  138.0180  163.5192 N.2     1  UNL1       -0.1523
      4 C         139.1579  139.2934  164.2154 C.2     1  UNL1        0.0858
      5 C         139.3647  140.3488  163.1697 C.3     1  UNL1        0.0883
      6 C         139.7376  141.6241  163.8659 C.3     1  UNL1        0.0384
      7 C         139.7612  141.3569  165.3417 C.ar    1  UNL1       -0.0205
      8 C         140.0627  142.2391  166.5167 C.ar    1  UNL1       -0.0065
      9 C         140.0058  141.6808  167.9078 C.ar    1  UNL1        0.0019
     10 C         139.6476  140.2403  168.1238 C.ar    1  UNL1       -0.0023
     11 C         139.3461  139.3581  166.9487 C.ar    1  UNL1        0.0007
     12 C         139.4029  139.9164  165.5577 C.ar    1  UNL1        0.0117
     13 C         139.4645  142.1466  158.8130 C.ar    1  UNL1        0.0710
     14 C         139.4348  141.8901  160.2907 C.ar    1  UNL1        0.0165
     15 C         139.2160  140.4212  160.5019 C.ar    1  UNL1        0.0233
     16 C         139.1106  139.7699  159.1548 C.ar    1  UNL1        0.0373
     17 S         139.2641  140.8362  158.1110 S.2     1  UNL1       -0.0780
     18 C         139.8559  144.8122  157.4935 C.1     1  UNL1       -0.0388
     19 C         139.6602  143.4794  158.1533 C.1     1  UNL1       -0.0543
     20 C         140.0516  146.1451  156.8338 C.3     1  UNL1        0.2814
     21 O         138.9187  146.7868  156.0888 O.3     1  UNL1       -0.4612
     22 C         139.1332  148.0871  155.3726 C.ar    1  UNL1        0.1400
     23 C         138.5649  149.3560  155.9355 C.ar    1  UNL1        0.0369
     24 C         138.7794  150.6564  155.2192 C.ar    1  UNL1        0.0031
     25 C         139.5622  150.6879  153.9401 C.ar    1  UNL1        0.0002
     26 C         140.1306  149.4190  153.3772 C.ar    1  UNL1        0.0031
     27 C         139.9161  148.1186  154.0934 C.ar    1  UNL1        0.0369
     28 C         140.3073  142.5630  169.0829 C.3     1  UNL1        0.1556
     29 N         141.7230  142.7354  169.5477 N.ar    1  UNL1       -0.2257
     30 C         142.9089  141.9493  169.0726 C.ar    1  UNL1        0.1196
     31 C         144.1203  142.4522  169.8003 C.ar    1  UNL1        0.1441
     32 N         143.6831  143.5492  170.7253 N.ar    1  UNL1       -0.1271
     33 N         142.2015  143.7242  170.5691 N.ar    1  UNL1       -0.0634
@<TRIPOS>BOND
     1    18    19    3
     2    19    13    1
     3    13    14   ar
     4    14    15   ar
     5    15     1    1
     6     1     2    2
     7     2     3    1
     8     3     4    2
     9     4     5    1
    10     5     6    1
    11     6     7    1
    12     7     8   ar
    13     8     9   ar
    14     9    28    1
    15    28    29    1
    16    29    30   ar
    17    30    31   ar
    18    31    32   ar
    19    32    33   ar
    20     9    10   ar
    21    10    11   ar
    22    11    12   ar
    23    15    16   ar
    24    16    17   ar
    25    18    20    1
    26    20    21    1
    27    21    22    1
    28    22    23   ar
    29    23    24   ar
    30    24    25   ar
    31    25    26   ar
    32    26    27   ar
    33    17    13   ar
    34    27    22   ar
    35     5     1    1
    36    12     7   ar
    37    12     4    1
    38    33    29   ar
@<TRIPOS>MOLECULE
*****
 33 38 0 0 0
SMALL
GASTEIGER

@<TRIPOS>ATOM
      1 C         143.5929  143.0274  160.0921 C.2     1  UNL1        0.0866
      2 N         144.5117  142.3400  159.1260 N.2     1  UNL1       -0.1523
      3 N         144.1175  142.7518  157.7385 N.2     1  UNL1       -0.1523
      4 C         142.9551  143.6937  157.8472 C.2     1  UNL1        0.0858
      5 C         142.6309  143.8640  159.3018 C.3     1  UNL1        0.0883
      6 C         141.4686  144.8059  159.4104 C.3     1  UNL1        0.0384
      7 C         141.0744  145.2177  158.0229 C.ar    1  UNL1       -0.0205
      8 C         139.9976  146.1298  157.5145 C.ar    1  UNL1       -0.0065
      9 C         139.8395  146.3545  156.0399 C.ar    1  UNL1        0.0019
     10 C         140.7582  145.6671  155.0738 C.ar    1  UNL1       -0.0023
     11 C         141.8350  144.7550  155.5822 C.ar    1  UNL1        0.0007
     12 C         141.9931  144.5303  157.0568 C.ar    1  UNL1        0.0117
     13 C         143.4862  141.9844  163.8293 C.ar    1  UNL1        0.0710
     14 C         143.3275  141.6598  162.3734 C.ar    1  UNL1        0.0165
     15 C         143.6297  142.9005  161.5863 C.ar    1  UNL1        0.0233
     16 C         143.9751  143.9918  162.5557 C.ar    1  UNL1        0.0373
     17 S         143.8864  143.4257  163.9419 S.2     1  UNL1       -0.0780
     18 C         143.0752  140.0848  166.1145 C.1     1  UNL1       -0.0388
     19 C         143.2807  141.0346  164.9719 C.1     1  UNL1       -0.0543
     20 C         142.8697  139.1349  167.2571 C.3     1  UNL1        0.2814
     21 O         142.9738  139.6277  168.6701 O.3     1  UNL1       -0.4612
     22 C         141.9982  140.6449  169.1834 C.ar    1  UNL1        0.1400
     23 C         140.5764  140.2510  169.4536 C.ar    1  UNL1        0.0369
     24 C         139.6008  141.2682  169.9669 C.ar    1  UNL1        0.0031
     25 C         140.0471  142.6795  170.2100 C.ar    1  UNL1        0.0002
     26 C         141.4691  143.0735  169.9398 C.ar    1  UNL1        0.0031
     27 C         142.4446  142.0563  169.4265 C.ar    1  UNL1        0.0369
     28 C         138.7626  147.2666  155.5314 C.3     1  UNL1        0.1556
     29 N         139.0422  148.7291  155.3502 N.ar    1  UNL1       -0.2257
     30 C         138.4758  149.8442  156.1782 C.ar    1  UNL1        0.1196
     31 C         139.0209  151.1376  155.6490 C.ar    1  UNL1        0.1441
     32 N         139.9242  150.8218  154.4939 N.ar    1  UNL1       -0.1271
     33 N         139.9374  149.3333  154.3093 N.ar    1  UNL1       -0.0634
@<TRIPOS>BOND
     1    18    19    3
     2    19    13    1
     3    13    14   ar
     4    14    15   ar
     5    15     1    1
     6     1     2    2
     7     2     3    1
     8     3     4    2
     9     4     5    1
    10     5     6    1
    11     6     7    1
    12     7     8   ar
    13     8     9   ar
    14     9    28    1
    15    28    29    1
    16    29    30   ar
    17    30    31   ar
    18    31    32   ar
    19    32    33   ar
    20     9    10   ar
    21    10    11   ar
    22    11    12   ar
    23    15    16   ar
    24    16    17   ar
    25    18    20    1
    26    20    21    1
    27    21    22    1
    28    22    23   ar
    29    23    24   ar
    30    24    25   ar
    31    25    26   ar
    32    26    27   ar
    33    17    13   ar
    34    27    22   ar
    35     5     1    1
    36    12     7   ar
    37    12     4    1
    38    33    29   ar
@<TRIPOS>MOLECULE
*****
 33 38 0 0 0
SMALL
GASTEIGER

@<TRIPOS>ATOM
      1 C         140.3778  139.4769  161.8172 C.2     1  UNL1        0.0866
      2 N         140.7712  138.0410  161.6347 N.2     1  UNL1       -0.1523
      3 N         141.4618  137.5868  162.8864 N.2     1  UNL1       -0.1523
      4 C         141.4952  138.7422  163.8426 C.2     1  UNL1        0.0858
      5 C         140.8252  139.9103  163.1817 C.3     1  UNL1        0.0883
      6 C         140.8586  141.0655  164.1379 C.3     1  UNL1        0.0384
      7 C         141.5491  140.6115  165.3896 C.ar    1  UNL1       -0.0205
      8 C         141.8705  141.3200  166.6721 C.ar    1  UNL1       -0.0065
      9 C         142.5853  140.5927  167.7720 C.ar    1  UNL1        0.0019
     10 C         142.9788  139.1567  167.5895 C.ar    1  UNL1       -0.0023
     11 C         142.6574  138.4482  166.3071 C.ar    1  UNL1        0.0007
     12 C         141.9426  139.1756  165.2072 C.ar    1  UNL1        0.0117
     13 C         138.3402  141.0256  158.8991 C.ar    1  UNL1        0.0710
     14 C         138.8836  139.8335  159.6297 C.ar    1  UNL1        0.0165
     15 C         139.6625  140.3297  160.8117 C.ar    1  UNL1        0.0233
     16 C         139.6005  141.8285  160.8116 C.ar    1  UNL1        0.0373
     17 S         138.7833  142.2585  159.6295 S.2     1  UNL1       -0.0780
     18 C         136.6619  140.9561  156.4134 C.1     1  UNL1       -0.0388
     19 C         137.5011  140.9909  157.6562 C.1     1  UNL1       -0.0543
     20 C         135.8228  140.9214  155.1705 C.3     1  UNL1        0.2814
     21 O         134.8426  139.8059  154.9584 O.3     1  UNL1       -0.4612
     22 C         133.5187  139.8266  155.6634 C.ar    1  UNL1        0.1400
     23 C         133.1869  138.7626  156.6672 C.ar    1  UNL1        0.0369
     24 C         131.8630  138.7833  157.3722 C.ar    1  UNL1        0.0031
     25 C         130.8711  139.8680  157.0734 C.ar    1  UNL1        0.0002
     26 C         131.2029  140.9321  156.0695 C.ar    1  UNL1        0.0031
     27 C         132.5267  140.9114  155.3645 C.ar    1  UNL1        0.0369
     28 C         142.9068  141.3012  169.0545 C.3     1  UNL1        0.1556
     29 N         141.7988  141.8097  169.9285 N.ar    1  UNL1       -0.2257
     30 C         140.7682  142.8288  169.5423 C.ar    1  UNL1        0.1196
     31 C         139.8593  143.0373  170.7172 C.ar    1  UNL1        0.1441
     32 N         140.3281  142.1469  171.8296 N.ar    1  UNL1       -0.1271
     33 N         141.5268  141.3882  171.3421 N.ar    1  UNL1       -0.0634
@<TRIPOS>BOND
     1    18    19    3
     2    19    13    1
     3    13    14   ar
     4    14    15   ar
     5    15     1    1
     6     1     2    2
     7     2     3    1
     8     3     4    2
     9     4     5    1
    10     5     6    1
    11     6     7    1
    12     7     8   ar
    13     8     9   ar
    14     9    28    1
    15    28    29    1
    16    29    30   ar
    17    30    31   ar
    18    31    32   ar
    19    32    33   ar
    20     9    10   ar
    21    10    11   ar
    22    11    12   ar
    23    15    16   ar
    24    16    17   ar
    25    18    20    1
    26    20    21    1
    27    21    22    1
    28    22    23   ar
    29    23    24   ar
    30    24    25   ar
    31    25    26   ar
    32    26    27   ar
    33    17    13   ar
    34    27    22   ar
    35     5     1    1
    36    12     7   ar
    37    12     4    1
    38    33    29   ar
