@<TRIPOS>MOLECULE
*****
 34 39 0 0 0
SMALL
GASTEIGER

@<TRIPOS>ATOM
      1 C         140.0773  136.8043  155.4049 C.3     1  UNL1        0.1161
      2 C         140.6233  135.4657  155.0044 C.3     1  UNL1        0.0510
      3 C         141.8547  134.9281  155.6712 C.2     1  UNL1       -0.0044
      4 C         142.5401  135.7289  156.7383 C.2     1  UNL1        0.0689
      5 N         143.7279  134.9462  157.2143 N.2     1  UNL1       -0.2526
      6 C         143.7765  133.6616  156.4413 C.2     1  UNL1        0.0627
      7 C         144.7254  132.5007  156.4827 C.3     1  UNL1        0.0717
      8 C         144.5166  131.3285  155.5704 C.2     1  UNL1       -0.0198
      9 C         143.3589  131.3173  154.6167 C.2     1  UNL1       -0.0042
     10 C         142.4100  132.4782  154.5753 C.2     1  UNL1        0.0006
     11 C         142.6188  133.6504  155.4876 C.2     1  UNL1        0.0111
     12 C         141.9942  137.0675  157.1387 C.3     1  UNL1        0.0949
     13 N         140.7628  137.6051  156.4720 N.3     1  UNL1       -0.2887
     14 H         141.0219  138.4969  156.0502 H       1  UNL1        0.1239
     15 C         136.7873  138.5611  154.3303 C.ar    1  UNL1        0.0949
     16 C         137.1146  137.7775  153.0939 C.ar    1  UNL1        0.1187
     17 N         138.3869  137.0240  153.3459 N.ar    1  UNL1       -0.2282
     18 C         138.8459  137.3419  154.7381 C.ar    1  UNL1        0.1318
     19 N         137.8573  138.2919  155.3465 N.ar    1  UNL1       -0.3385
     20 H         137.9027  138.6719  156.2536 H       1  UNL1        0.1672
     21 C         133.5544  140.2165  155.9296 C.ar    1  UNL1        0.2250
     22 C         133.2214  141.2478  154.8924 C.ar    1  UNL1        0.0577
     23 C         134.0771  141.3835  153.6680 C.ar    1  UNL1        0.0064
     24 C         135.2657  140.4879  153.4806 C.ar    1  UNL1        0.0209
     25 C         135.5986  139.4567  154.5177 C.ar    1  UNL1        0.1015
     26 N         134.7429  139.3209  155.7422 N.ar    1  UNL1       -0.2102
     27 C         132.9161  138.9354  158.0979 C.3     1  UNL1        0.2542
     28 O         132.6986  140.0808  157.1541 O.3     1  UNL1       -0.4561
     29 C         142.6796  137.8683  158.2059 C.3     1  UNL1        0.0252
     30 C         142.8445  137.2970  159.5829 C.3     1  UNL1        0.0339
     31 C         143.5300  138.0979  160.6500 C.3     1  UNL1        0.1422
     32 O         144.0504  139.4701  160.3401 O.3     1  UNL1       -0.3538
     33 C         143.8855  140.0415  158.9630 C.3     1  UNL1        0.1422
     34 C         143.2001  139.2406  157.8959 C.3     1  UNL1        0.0339
@<TRIPOS>BOND
     1    27    28    1
     2    28    21    1
     3    21    22   ar
     4    22    23   ar
     5    23    24   ar
     6    24    25   ar
     7    25    15    1
     8    15    16   ar
     9    16    17   ar
    10    17    18   ar
    11     1    18    1
    12     1     2    1
    13     2     3    1
    14     3     4    2
    15     4     5    1
    16     5     6    2
    17     6     7    1
    18     7     8    1
    19     8     9    2
    20     9    10    1
    21    10    11    2
    22     4    12    1
    23    12    29    1
    24    29    30    1
    25    30    31    1
    26    31    32    1
    27    32    33    1
    28    33    34    1
    29    12    13    1
    30    18    19   ar
    31    25    26   ar
    32    26    21   ar
    33    19    15   ar
    34    13     1    1
    35    11     3    1
    36    34    29    1
    37    11     6    1
    38    13    14    1
    39    19    20    1
@<TRIPOS>MOLECULE
*****
 34 39 0 0 0
SMALL
GASTEIGER

@<TRIPOS>ATOM
      1 C         142.0792  139.9932  160.6940 C.3     1  UNL1        0.1161
      2 C         142.5235  139.3653  161.9818 C.3     1  UNL1        0.0510
      3 C         142.2190  140.0370  163.2879 C.2     1  UNL1       -0.0044
      4 C         141.4702  141.3366  163.3063 C.2     1  UNL1        0.0689
      5 N         141.3156  141.7622  164.7363 N.2     1  UNL1       -0.2526
      6 C         141.9689  140.7257  165.6017 C.2     1  UNL1        0.0627
      7 C         142.1274  140.6151  167.0892 C.3     1  UNL1        0.0717
      8 C         142.8443  139.4381  167.6815 C.2     1  UNL1       -0.0198
      9 C         143.4027  138.3719  166.7863 C.2     1  UNL1       -0.0042
     10 C         143.2441  138.4825  165.2989 C.2     1  UNL1        0.0006
     11 C         142.5272  139.6594  164.7066 C.2     1  UNL1        0.0111
     12 C         141.0259  141.9644  162.0185 C.3     1  UNL1        0.0949
     13 N         141.3304  141.2927  160.7124 N.3     1  UNL1       -0.2887
     14 H         141.8762  141.9549  160.1609 H       1  UNL1        0.1239
     15 C         142.5219  137.6607  157.6233 C.ar    1  UNL1        0.0949
     16 C         143.1827  138.9146  157.1325 C.ar    1  UNL1        0.1187
     17 N         143.0973  139.9410  158.2230 N.ar    1  UNL1       -0.2282
     18 C         142.3837  139.3214  159.3878 C.ar    1  UNL1        0.1318
     19 N         142.0281  137.9121  159.0172 N.ar    1  UNL1       -0.3385
     20 H         141.5539  137.2656  159.5886 H       1  UNL1        0.1672
     21 C         143.1613  133.9511  156.3662 C.ar    1  UNL1        0.2250
     22 C         142.0956  133.8191  155.3189 C.ar    1  UNL1        0.0577
     23 C         141.1720  134.9676  155.0397 C.ar    1  UNL1        0.0064
     24 C         141.3141  136.2481  155.8078 C.ar    1  UNL1        0.0209
     25 C         142.3798  136.3801  156.8552 C.ar    1  UNL1        0.1015
     26 N         143.3034  135.2316  157.1343 N.ar    1  UNL1       -0.2102
     27 C         144.8625  132.7599  157.9273 C.3     1  UNL1        0.2542
     28 O         144.0849  132.8026  156.6453 O.3     1  UNL1       -0.4561
     29 C         140.2771  143.2640  162.0369 C.3     1  UNL1        0.0252
     30 C         140.8614  144.4757  161.3735 C.3     1  UNL1        0.0339
     31 C         140.1125  145.7753  161.3919 C.3     1  UNL1        0.1422
     32 O         138.7793  145.8631  162.0737 O.3     1  UNL1       -0.3538
     33 C         138.1949  144.6513  162.7371 C.3     1  UNL1        0.1422
     34 C         138.9438  143.3518  162.7187 C.3     1  UNL1        0.0339
@<TRIPOS>BOND
     1    27    28    1
     2    28    21    1
     3    21    22   ar
     4    22    23   ar
     5    23    24   ar
     6    24    25   ar
     7    25    15    1
     8    15    16   ar
     9    16    17   ar
    10    17    18   ar
    11     1    18    1
    12     1     2    1
    13     2     3    1
    14     3     4    2
    15     4     5    1
    16     5     6    2
    17     6     7    1
    18     7     8    1
    19     8     9    2
    20     9    10    1
    21    10    11    2
    22     4    12    1
    23    12    29    1
    24    29    30    1
    25    30    31    1
    26    31    32    1
    27    32    33    1
    28    33    34    1
    29    12    13    1
    30    18    19   ar
    31    25    26   ar
    32    26    21   ar
    33    19    15   ar
    34    13     1    1
    35    11     3    1
    36    34    29    1
    37    11     6    1
    38    13    14    1
    39    19    20    1
@<TRIPOS>MOLECULE
*****
 34 39 0 0 0
SMALL
GASTEIGER

@<TRIPOS>ATOM
      1 C         139.3810  139.7802  157.6093 C.3     1  UNL1        0.1161
      2 C         139.0437  139.6710  159.0668 C.3     1  UNL1        0.0510
      3 C         138.7379  140.9065  159.8605 C.2     1  UNL1       -0.0044
      4 C         138.7694  142.2512  159.1966 C.2     1  UNL1        0.0689
      5 N         138.4261  143.2852  160.2276 N.2     1  UNL1       -0.2526
      6 C         138.1824  142.5796  161.5286 C.2     1  UNL1        0.0627
      7 C         137.8099  143.0857  162.8906 C.3     1  UNL1        0.0717
      8 C         137.6301  142.1218  164.0256 C.2     1  UNL1       -0.0198
      9 C         137.8229  140.6516  163.7987 C.2     1  UNL1       -0.0042
     10 C         138.1954  140.1454  162.4368 C.2     1  UNL1        0.0006
     11 C         138.3751  141.1094  161.3017 C.2     1  UNL1        0.0111
     12 C         139.1067  142.3604  157.7391 C.3     1  UNL1        0.0949
     13 N         139.4125  141.1249  156.9454 N.3     1  UNL1       -0.2887
     14 H         140.3516  141.2438  156.5656 H       1  UNL1        0.1239
     15 C         140.7683  136.5255  156.0131 C.ar    1  UNL1        0.0949
     16 C         139.5463  136.7610  155.1756 C.ar    1  UNL1        0.1187
     17 N         138.8779  138.0088  155.6716 N.ar    1  UNL1       -0.2282
     18 C         139.6867  138.5445  156.8156 C.ar    1  UNL1        0.1318
     19 N         140.8550  137.6278  157.0267 N.ar    1  UNL1       -0.3385
     20 H         141.5558  137.7314  157.7104 H       1  UNL1        0.1672
     21 C         143.6114  133.8853  156.8475 C.ar    1  UNL1        0.2250
     22 C         143.6652  133.1114  155.5637 C.ar    1  UNL1        0.0577
     23 C         142.7533  133.4755  154.4297 C.ar    1  UNL1        0.0064
     24 C         141.7877  134.6135  154.5795 C.ar    1  UNL1        0.0209
     25 C         141.7339  135.3874  155.8633 C.ar    1  UNL1        0.1015
     26 N         142.6458  135.0233  156.9973 N.ar    1  UNL1       -0.2102
     27 C         145.2686  132.2197  157.9564 C.3     1  UNL1        0.2542
     28 O         144.5233  133.5212  157.9815 O.3     1  UNL1       -0.4561
     29 C         139.1382  143.7051  157.0752 C.3     1  UNL1        0.0252
     30 C         140.0656  144.7698  157.5813 C.3     1  UNL1        0.0339
     31 C         140.0970  146.1146  156.9174 C.3     1  UNL1        0.1422
     32 O         139.2011  146.3946  155.7474 O.3     1  UNL1       -0.3538
     33 C         138.2737  145.3298  155.2413 C.3     1  UNL1        0.1422
     34 C         138.2422  143.9851  155.9052 C.3     1  UNL1        0.0339
@<TRIPOS>BOND
     1    27    28    1
     2    28    21    1
     3    21    22   ar
     4    22    23   ar
     5    23    24   ar
     6    24    25   ar
     7    25    15    1
     8    15    16   ar
     9    16    17   ar
    10    17    18   ar
    11     1    18    1
    12     1     2    1
    13     2     3    1
    14     3     4    2
    15     4     5    1
    16     5     6    2
    17     6     7    1
    18     7     8    1
    19     8     9    2
    20     9    10    1
    21    10    11    2
    22     4    12    1
    23    12    29    1
    24    29    30    1
    25    30    31    1
    26    31    32    1
    27    32    33    1
    28    33    34    1
    29    12    13    1
    30    18    19   ar
    31    25    26   ar
    32    26    21   ar
    33    19    15   ar
    34    13     1    1
    35    11     3    1
    36    34    29    1
    37    11     6    1
    38    13    14    1
    39    19    20    1
@<TRIPOS>MOLECULE
*****
 34 39 0 0 0
SMALL
GASTEIGER

@<TRIPOS>ATOM
      1 C         143.4147  140.2329  158.0459 C.3     1  UNL1        0.1161
      2 C         143.9549  140.2235  159.4452 C.3     1  UNL1        0.0510
      3 C         143.8200  141.4421  160.3094 C.2     1  UNL1       -0.0044
      4 C         143.1448  142.6700  159.7743 C.2     1  UNL1        0.0689
      5 N         143.1587  143.7134  160.8518 N.2     1  UNL1       -0.2526
      6 C         143.8425  143.1304  162.0529 C.2     1  UNL1        0.0627
      7 C         144.1457  143.6963  163.4085 C.3     1  UNL1        0.0717
      8 C         144.8576  142.8585  164.4288 C.2     1  UNL1       -0.0198
      9 C         145.2663  141.4547  164.0936 C.2     1  UNL1       -0.0042
     10 C         144.9631  140.8888  162.7380 C.2     1  UNL1        0.0006
     11 C         144.2511  141.7266  161.7177 C.2     1  UNL1        0.0111
     12 C         142.6046  142.6794  158.3749 C.3     1  UNL1        0.0949
     13 N         142.7395  141.4608  157.5107 N.3     1  UNL1       -0.2887
     14 H         143.2597  141.7447  156.6805 H       1  UNL1        0.1239
     15 C         143.3364  136.7496  156.3352 C.ar    1  UNL1        0.0949
     16 C         144.1783  137.5284  155.3685 C.ar    1  UNL1        0.1187
     17 N         144.3101  138.9281  155.8916 N.ar    1  UNL1       -0.2282
     18 C         143.5497  139.0143  157.1816 C.ar    1  UNL1        0.1318
     19 N         142.9478  137.6680  157.4559 N.ar    1  UNL1       -0.3385
     20 H         142.3949  137.4290  158.2346 H       1  UNL1        0.1672
     21 C         143.4065  132.8000  156.7162 C.ar    1  UNL1        0.2250
     22 C         142.1791  132.4188  155.9426 C.ar    1  UNL1        0.0577
     23 C         141.3376  133.4811  155.3000 C.ar    1  UNL1        0.0064
     24 C         141.7233  134.9247  155.4309 C.ar    1  UNL1        0.0209
     25 C         142.9506  135.3060  156.2044 C.ar    1  UNL1        0.1015
     26 N         143.7922  134.2436  156.8470 N.ar    1  UNL1       -0.2102
     27 C         145.5043  132.1141  158.0868 C.3     1  UNL1        0.2542
     28 O         144.2481  131.7375  157.3588 O.3     1  UNL1       -0.4561
     29 C         141.9295  143.9073  157.8398 C.3     1  UNL1        0.0252
     30 C         142.3387  144.4693  156.5108 C.3     1  UNL1        0.0339
     31 C         141.6635  145.6973  155.9756 C.3     1  UNL1        0.1422
     32 O         140.5791  146.3632  156.7697 O.3     1  UNL1       -0.3538
     33 C         140.1698  145.8011  158.0988 C.3     1  UNL1        0.1422
     34 C         140.8449  144.5733  158.6339 C.3     1  UNL1        0.0339
@<TRIPOS>BOND
     1    27    28    1
     2    28    21    1
     3    21    22   ar
     4    22    23   ar
     5    23    24   ar
     6    24    25   ar
     7    25    15    1
     8    15    16   ar
     9    16    17   ar
    10    17    18   ar
    11     1    18    1
    12     1     2    1
    13     2     3    1
    14     3     4    2
    15     4     5    1
    16     5     6    2
    17     6     7    1
    18     7     8    1
    19     8     9    2
    20     9    10    1
    21    10    11    2
    22     4    12    1
    23    12    29    1
    24    29    30    1
    25    30    31    1
    26    31    32    1
    27    32    33    1
    28    33    34    1
    29    12    13    1
    30    18    19   ar
    31    25    26   ar
    32    26    21   ar
    33    19    15   ar
    34    13     1    1
    35    11     3    1
    36    34    29    1
    37    11     6    1
    38    13    14    1
    39    19    20    1
@<TRIPOS>MOLECULE
*****
 34 39 0 0 0
SMALL
GASTEIGER

@<TRIPOS>ATOM
      1 C         142.4877  136.8301  157.4696 C.3     1  UNL1        0.1161
      2 C         143.2173  135.5319  157.2892 C.3     1  UNL1        0.0510
      3 C         142.8274  134.6002  156.1803 C.2     1  UNL1       -0.0044
      4 C         141.7079  134.9666  155.2517 C.2     1  UNL1        0.0689
      5 N         141.5485  133.8554  154.2568 N.2     1  UNL1       -0.2526
      6 C         142.5695  132.8022  154.5705 C.2     1  UNL1        0.0627
      7 C         142.8816  131.4836  153.9273 C.3     1  UNL1        0.0717
      8 C         143.9841  130.6253  154.4729 C.2     1  UNL1       -0.0198
      9 C         144.7746  131.0856  155.6617 C.2     1  UNL1       -0.0042
     10 C         144.4625  132.4043  156.3049 C.2     1  UNL1        0.0006
     11 C         143.3599  133.2626  155.7593 C.2     1  UNL1        0.0111
     12 C         140.9782  136.2647  155.4320 C.3     1  UNL1        0.0949
     13 N         141.3681  137.1964  156.5409 N.3     1  UNL1       -0.2887
     14 H         140.5382  137.3302  157.1186 H       1  UNL1        0.1239
     15 C         143.2491  138.6902  160.7900 C.ar    1  UNL1        0.0949
     16 C         143.7061  139.7009  159.7802 C.ar    1  UNL1        0.1187
     17 N         143.4765  139.1271  158.4135 N.ar    1  UNL1       -0.2282
     18 C         142.8776  137.7618  158.5786 C.ar    1  UNL1        0.1318
     19 N         142.7371  137.4918  160.0473 N.ar    1  UNL1       -0.3385
     20 H         142.3727  136.6719  160.4527 H       1  UNL1        0.1672
     21 C         142.1664  138.5999  164.6070 C.ar    1  UNL1        0.2250
     22 C         143.3897  139.1693  165.2622 C.ar    1  UNL1        0.0577
     23 C         144.5661  139.5791  164.4267 C.ar    1  UNL1        0.0064
     24 C         144.5192  139.4194  162.9360 C.ar    1  UNL1        0.0209
     25 C         143.2960  138.8499  162.2808 C.ar    1  UNL1        0.1015
     26 N         142.1195  138.4402  163.1163 N.ar    1  UNL1       -0.2102
     27 C         139.6053  138.2499  164.8689 C.3     1  UNL1        0.2542
     28 O         140.9900  138.1901  165.4426 O.3     1  UNL1       -0.4561
     29 C         139.8586  136.6311  154.5034 C.3     1  UNL1        0.0252
     30 C         138.6034  137.2456  155.0478 C.3     1  UNL1        0.0339
     31 C         137.4838  137.6120  154.1191 C.3     1  UNL1        0.1422
     32 O         137.6196  137.3638  152.6460 O.3     1  UNL1       -0.3538
     33 C         138.8750  136.7492  152.1016 C.3     1  UNL1        0.1422
     34 C         139.9944  136.3829  153.0302 C.3     1  UNL1        0.0339
@<TRIPOS>BOND
     1    27    28    1
     2    28    21    1
     3    21    22   ar
     4    22    23   ar
     5    23    24   ar
     6    24    25   ar
     7    25    15    1
     8    15    16   ar
     9    16    17   ar
    10    17    18   ar
    11     1    18    1
    12     1     2    1
    13     2     3    1
    14     3     4    2
    15     4     5    1
    16     5     6    2
    17     6     7    1
    18     7     8    1
    19     8     9    2
    20     9    10    1
    21    10    11    2
    22     4    12    1
    23    12    29    1
    24    29    30    1
    25    30    31    1
    26    31    32    1
    27    32    33    1
    28    33    34    1
    29    12    13    1
    30    18    19   ar
    31    25    26   ar
    32    26    21   ar
    33    19    15   ar
    34    13     1    1
    35    11     3    1
    36    34    29    1
    37    11     6    1
    38    13    14    1
    39    19    20    1
@<TRIPOS>MOLECULE
*****
 34 39 0 0 0
SMALL
GASTEIGER

@<TRIPOS>ATOM
      1 C         142.5090  137.0807  157.2257 C.3     1  UNL1        0.1161
      2 C         143.2208  135.7666  157.0971 C.3     1  UNL1        0.0510
      3 C         142.7580  134.7587  156.0872 C.2     1  UNL1       -0.0044
      4 C         141.5835  135.0649  155.2058 C.2     1  UNL1        0.0689
      5 N         141.3574  133.8845  154.3083 N.2     1  UNL1       -0.2526
      6 C         142.3921  132.8488  154.6350 C.2     1  UNL1        0.0627
      7 C         142.6579  131.4836  154.0734 C.3     1  UNL1        0.0717
      8 C         143.7893  130.6586  154.6112 C.2     1  UNL1       -0.0198
      9 C         144.6550  131.1989  155.7106 C.2     1  UNL1       -0.0042
     10 C         144.3892  132.5642  156.2722 C.2     1  UNL1        0.0006
     11 C         143.2578  133.3891  155.7344 C.2     1  UNL1        0.0111
     12 C         140.8717  136.3790  155.3344 C.3     1  UNL1        0.0949
     13 N         141.3345  137.3869  156.3444 N.3     1  UNL1       -0.2887
     14 H         140.5432  137.5701  156.9614 H       1  UNL1        0.1239
     15 C         143.5122  139.1636  160.3435 C.ar    1  UNL1        0.0949
     16 C         143.8554  140.1156  159.2363 C.ar    1  UNL1        0.1187
     17 N         143.5213  139.4512  157.9336 N.ar    1  UNL1       -0.2282
     18 C         142.9717  138.0887  158.2357 C.ar    1  UNL1        0.1318
     19 N         142.9661  137.9108  159.7251 N.ar    1  UNL1       -0.3385
     20 H         142.6580  137.1122  160.2114 H       1  UNL1        0.1672
     21 C         144.5965  140.8939  163.7465 C.ar    1  UNL1        0.2250
     22 C         144.0300  139.9308  164.7473 C.ar    1  UNL1        0.0577
     23 C         143.2910  138.7120  164.2802 C.ar    1  UNL1        0.0064
     24 C         143.1184  138.4563  162.8123 C.ar    1  UNL1        0.0209
     25 C         143.6848  139.4194  161.8115 C.ar    1  UNL1        0.1015
     26 N         144.4239  140.6382  162.2786 N.ar    1  UNL1       -0.2102
     27 C         144.6313  143.1448  165.0435 C.3     1  UNL1        0.2542
     28 O         145.3356  142.1128  164.2136 O.3     1  UNL1       -0.4561
     29 C         139.6972  136.6852  154.4531 C.3     1  UNL1        0.0252
     30 C         139.7602  136.3786  152.9862 C.3     1  UNL1        0.0339
     31 C         138.5856  136.6848  152.1049 C.3     1  UNL1        0.1422
     32 O         137.3481  137.2977  152.6905 O.3     1  UNL1       -0.3538
     33 C         137.2852  137.6043  154.1575 C.3     1  UNL1        0.1422
     34 C         138.4597  137.2981  155.0388 C.3     1  UNL1        0.0339
@<TRIPOS>BOND
     1    27    28    1
     2    28    21    1
     3    21    22   ar
     4    22    23   ar
     5    23    24   ar
     6    24    25   ar
     7    25    15    1
     8    15    16   ar
     9    16    17   ar
    10    17    18   ar
    11     1    18    1
    12     1     2    1
    13     2     3    1
    14     3     4    2
    15     4     5    1
    16     5     6    2
    17     6     7    1
    18     7     8    1
    19     8     9    2
    20     9    10    1
    21    10    11    2
    22     4    12    1
    23    12    29    1
    24    29    30    1
    25    30    31    1
    26    31    32    1
    27    32    33    1
    28    33    34    1
    29    12    13    1
    30    18    19   ar
    31    25    26   ar
    32    26    21   ar
    33    19    15   ar
    34    13     1    1
    35    11     3    1
    36    34    29    1
    37    11     6    1
    38    13    14    1
    39    19    20    1
@<TRIPOS>MOLECULE
*****
 34 39 0 0 0
SMALL
GASTEIGER

@<TRIPOS>ATOM
      1 C         142.0199  139.6442  161.3387 C.3     1  UNL1        0.1161
      2 C         141.0275  138.9149  162.1950 C.3     1  UNL1        0.0510
      3 C         140.6871  139.4372  163.5593 C.2     1  UNL1       -0.0044
      4 C         141.3393  140.6889  164.0673 C.2     1  UNL1        0.0689
      5 N         140.8089  140.9620  165.4436 N.2     1  UNL1       -0.2526
      6 C         139.8290  139.8792  165.7861 C.2     1  UNL1        0.0627
      7 C         138.9956  139.6296  167.0080 C.3     1  UNL1        0.0717
      8 C         138.0869  138.4376  167.0653 C.2     1  UNL1       -0.0198
      9 C         138.0116  137.4952  165.9007 C.2     1  UNL1       -0.0042
     10 C         138.8450  137.7448  164.6788 C.2     1  UNL1        0.0006
     11 C         139.7537  138.9368  164.6215 C.2     1  UNL1        0.0111
     12 C         142.3318  141.4182  163.2111 C.3     1  UNL1        0.0949
     13 N         142.6721  140.8958  161.8468 N.3     1  UNL1       -0.2887
     14 H         143.6782  140.7280  161.8383 H       1  UNL1        0.1239
     15 C         142.6495  137.6350  158.0780 C.ar    1  UNL1        0.0949
     16 C         143.1184  139.0008  157.6720 C.ar    1  UNL1        0.1187
     17 N         142.9396  139.9197  158.8440 N.ar    1  UNL1       -0.2282
     18 C         142.3603  139.1218  159.9744 C.ar    1  UNL1        0.1318
     19 N         142.1810  137.7098  159.5010 N.ar    1  UNL1       -0.3385
     20 H         141.8193  136.9633  160.0312 H       1  UNL1        0.1672
     21 C         143.3668  133.9470  156.7997 C.ar    1  UNL1        0.2250
     22 C         142.6486  133.9588  155.4828 C.ar    1  UNL1        0.0577
     23 C         141.9308  135.1959  155.0310 C.ar    1  UNL1        0.0064
     24 C         141.9311  136.4213  155.8961 C.ar    1  UNL1        0.0209
     25 C         142.6492  136.4095  157.2129 C.ar    1  UNL1        0.1015
     26 N         143.3671  135.1724  157.6647 N.ar    1  UNL1       -0.2102
     27 C         144.9006  131.9170  156.2739 C.3     1  UNL1        0.2542
     28 O         144.0846  132.7098  157.2514 O.3     1  UNL1       -0.4561
     29 C         142.9839  142.6698  163.7191 C.3     1  UNL1        0.0252
     30 C         142.6180  143.9990  163.1284 C.3     1  UNL1        0.0339
     31 C         143.2702  145.2507  163.6365 C.3     1  UNL1        0.1422
     32 O         144.2883  145.1730  164.7353 O.3     1  UNL1       -0.3538
     33 C         144.6543  143.8436  165.3260 C.3     1  UNL1        0.1422
     34 C         144.0021  142.5921  164.8180 C.3     1  UNL1        0.0339
@<TRIPOS>BOND
     1    27    28    1
     2    28    21    1
     3    21    22   ar
     4    22    23   ar
     5    23    24   ar
     6    24    25   ar
     7    25    15    1
     8    15    16   ar
     9    16    17   ar
    10    17    18   ar
    11     1    18    1
    12     1     2    1
    13     2     3    1
    14     3     4    2
    15     4     5    1
    16     5     6    2
    17     6     7    1
    18     7     8    1
    19     8     9    2
    20     9    10    1
    21    10    11    2
    22     4    12    1
    23    12    29    1
    24    29    30    1
    25    30    31    1
    26    31    32    1
    27    32    33    1
    28    33    34    1
    29    12    13    1
    30    18    19   ar
    31    25    26   ar
    32    26    21   ar
    33    19    15   ar
    34    13     1    1
    35    11     3    1
    36    34    29    1
    37    11     6    1
    38    13    14    1
    39    19    20    1
@<TRIPOS>MOLECULE
*****
 34 39 0 0 0
SMALL
GASTEIGER

@<TRIPOS>ATOM
      1 C         141.3584  139.9314  160.4553 C.3     1  UNL1        0.1161
      2 C         140.7460  139.0293  161.4855 C.3     1  UNL1        0.0510
      3 C         140.1175  139.6137  162.7157 C.2     1  UNL1       -0.0044
      4 C         140.1015  141.1002  162.9158 C.2     1  UNL1        0.0689
      5 N         139.4152  141.3851  164.2188 N.2     1  UNL1       -0.2526
      6 C         139.0071  140.0747  164.8240 C.2     1  UNL1        0.0627
      7 C         138.2963  139.7370  166.1010 C.3     1  UNL1        0.0717
      8 C         138.0196  138.3044  166.4489 C.2     1  UNL1       -0.0198
      9 C         138.4536  137.2096  165.5200 C.2     1  UNL1       -0.0042
     10 C         139.1644  137.5474  164.2430 C.2     1  UNL1        0.0006
     11 C         139.4411  138.9799  163.8950 C.2     1  UNL1        0.0111
     12 C         140.7140  142.0023  161.8856 C.3     1  UNL1        0.0949
     13 N         141.3424  141.4179  160.6554 N.3     1  UNL1       -0.2887
     14 H         142.3145  141.7267  160.6462 H       1  UNL1        0.1239
     15 C         142.6113  137.7942  157.4674 C.ar    1  UNL1        0.0949
     16 C         143.2963  139.1008  157.1965 C.ar    1  UNL1        0.1187
     17 N         142.9104  140.0605  158.2828 N.ar    1  UNL1       -0.2282
     18 C         141.9868  139.3469  159.2250 C.ar    1  UNL1        0.1318
     19 N         141.8020  137.9463  158.7211 N.ar    1  UNL1       -0.3385
     20 H         141.2469  137.2492  159.1398 H       1  UNL1        0.1672
     21 C         143.2781  134.0255  156.4172 C.ar    1  UNL1        0.2250
     22 C         142.9285  134.0715  154.9592 C.ar    1  UNL1        0.0577
     23 C         142.4732  135.3582  154.3373 C.ar    1  UNL1        0.0064
     24 C         142.3675  136.5991  155.1734 C.ar    1  UNL1        0.0209
     25 C         142.7171  136.5532  156.6313 C.ar    1  UNL1        0.1015
     26 N         143.1724  135.2664  157.2533 N.ar    1  UNL1       -0.2102
     27 C         144.9347  132.7235  157.9373 C.3     1  UNL1        0.2542
     28 O         143.7334  132.7387  157.0391 O.3     1  UNL1       -0.4561
     29 C         140.6980  143.4888  162.0857 C.3     1  UNL1        0.0252
     30 C         141.5660  144.1134  163.1374 C.3     1  UNL1        0.0339
     31 C         141.5500  145.6000  163.3375 C.3     1  UNL1        0.1422
     32 O         140.6659  146.4619  162.4858 O.3     1  UNL1       -0.3538
     33 C         139.7977  145.8373  161.4340 C.3     1  UNL1        0.1422
     34 C         139.8138  144.3508  161.2340 C.3     1  UNL1        0.0339
@<TRIPOS>BOND
     1    27    28    1
     2    28    21    1
     3    21    22   ar
     4    22    23   ar
     5    23    24   ar
     6    24    25   ar
     7    25    15    1
     8    15    16   ar
     9    16    17   ar
    10    17    18   ar
    11     1    18    1
    12     1     2    1
    13     2     3    1
    14     3     4    2
    15     4     5    1
    16     5     6    2
    17     6     7    1
    18     7     8    1
    19     8     9    2
    20     9    10    1
    21    10    11    2
    22     4    12    1
    23    12    29    1
    24    29    30    1
    25    30    31    1
    26    31    32    1
    27    32    33    1
    28    33    34    1
    29    12    13    1
    30    18    19   ar
    31    25    26   ar
    32    26    21   ar
    33    19    15   ar
    34    13     1    1
    35    11     3    1
    36    34    29    1
    37    11     6    1
    38    13    14    1
    39    19    20    1
@<TRIPOS>MOLECULE
*****
 34 39 0 0 0
SMALL
GASTEIGER

@<TRIPOS>ATOM
      1 C         141.5759  139.6710  160.8786 C.3     1  UNL1        0.1161
      2 C         142.0847  139.0980  162.1681 C.3     1  UNL1        0.0510
      3 C         141.9553  139.8822  163.4402 C.2     1  UNL1       -0.0044
      4 C         141.3171  141.2395  163.4228 C.2     1  UNL1        0.0689
      5 N         141.3282  141.7749  164.8239 N.2     1  UNL1       -0.2526
      6 C         141.9733  140.7484  165.7073 C.2     1  UNL1        0.0627
      7 C         142.2579  140.7278  167.1799 C.3     1  UNL1        0.0717
      8 C         142.9301  139.5375  167.7972 C.2     1  UNL1       -0.0198
      9 C         143.3177  138.3677  166.9420 C.2     1  UNL1       -0.0042
     10 C         143.0331  138.3883  165.4694 C.2     1  UNL1        0.0006
     11 C         142.3609  139.5787  164.8520 C.2     1  UNL1        0.0111
     12 C         140.8082  141.8126  162.1333 C.3     1  UNL1        0.0949
     13 N         140.9376  141.0284  160.8613 N.3     1  UNL1       -0.2887
     14 H         141.4816  141.6013  160.2162 H       1  UNL1        0.1239
     15 C         141.2271  137.9188  157.4328 C.ar    1  UNL1        0.0949
     16 C         142.5817  137.4411  157.8652 C.ar    1  UNL1        0.1187
     17 N         142.8772  138.0393  159.2086 N.ar    1  UNL1       -0.2282
     18 C         141.7053  138.8867  159.6065 C.ar    1  UNL1        0.1318
     19 N         140.6855  138.8123  158.5091 N.ar    1  UNL1       -0.3385
     20 H         139.8137  139.2696  158.4973 H       1  UNL1        0.1672
     21 C         138.3507  137.3109  154.7670 C.ar    1  UNL1        0.2250
     22 C         139.1526  136.8578  153.5831 C.ar    1  UNL1        0.0577
     23 C         140.6460  136.7584  153.6824 C.ar    1  UNL1        0.0064
     24 C         141.3375  137.1121  154.9656 C.ar    1  UNL1        0.0209
     25 C         140.5356  137.5651  156.1496 C.ar    1  UNL1        0.1015
     26 N         139.0422  137.6645  156.0503 N.ar    1  UNL1       -0.2102
     27 C         136.2187  138.6942  154.2277 C.3     1  UNL1        0.2542
     28 O         136.8573  137.4103  154.6677 O.3     1  UNL1       -0.4561
     29 C         140.1699  143.1699  162.1160 C.3     1  UNL1        0.0252
     30 C         138.8784  143.4007  162.8429 C.3     1  UNL1        0.0339
     31 C         138.2401  144.7581  162.8255 C.3     1  UNL1        0.1422
     32 O         138.8935  145.8846  162.0811 O.3     1  UNL1       -0.3538
     33 C         140.1851  145.6538  161.3541 C.3     1  UNL1        0.1422
     34 C         140.8233  144.2965  161.3716 C.3     1  UNL1        0.0339
@<TRIPOS>BOND
     1    27    28    1
     2    28    21    1
     3    21    22   ar
     4    22    23   ar
     5    23    24   ar
     6    24    25   ar
     7    25    15    1
     8    15    16   ar
     9    16    17   ar
    10    17    18   ar
    11     1    18    1
    12     1     2    1
    13     2     3    1
    14     3     4    2
    15     4     5    1
    16     5     6    2
    17     6     7    1
    18     7     8    1
    19     8     9    2
    20     9    10    1
    21    10    11    2
    22     4    12    1
    23    12    29    1
    24    29    30    1
    25    30    31    1
    26    31    32    1
    27    32    33    1
    28    33    34    1
    29    12    13    1
    30    18    19   ar
    31    25    26   ar
    32    26    21   ar
    33    19    15   ar
    34    13     1    1
    35    11     3    1
    36    34    29    1
    37    11     6    1
    38    13    14    1
    39    19    20    1
