@<TRIPOS>MOLECULE
*****
 31 36 0 0 0
SMALL
GASTEIGER

@<TRIPOS>ATOM
      1 C         142.8105  141.5081  165.3130 C.3     1  UNL1        0.0325
      2 C         141.6989  142.2936  164.6827 C.ar    1  UNL1       -0.0062
      3 C         140.4276  142.5353  165.4411 C.ar    1  UNL1       -0.0062
      4 C         139.3160  143.3208  164.8107 C.ar    1  UNL1       -0.0004
      5 C         139.4756  143.8645  163.4219 C.ar    1  UNL1        0.0045
      6 C         140.7470  143.6228  162.6634 C.ar    1  UNL1        0.0518
      7 C         140.9067  144.1666  161.2746 C.ar    1  UNL1        0.1704
      8 O         139.9912  144.9711  160.4003 O.2     1  UNL1       -0.4368
      9 C         140.6967  145.2266  159.1015 C.ar    1  UNL1        0.2217
     10 N         142.0483  144.5800  159.1731 N.ar    1  UNL1       -0.2060
     11 C         142.1781  143.9248  160.5162 C.ar    1  UNL1        0.1744
     12 C         143.2897  143.1394  161.1465 C.ar    1  UNL1        0.2816
     13 O         144.5611  142.8977  160.3881 O.2     1  UNL1       -0.2652
     14 N         143.1300  142.5957  162.5353 N.ar    1  UNL1       -0.2963
     15 C         141.8587  142.8374  163.2938 C.ar    1  UNL1        0.0614
     16 C         140.2678  141.9916  166.8299 C.2     1  UNL1       -0.0179
     17 C         139.7015  140.6181  167.0371 C.2     1  UNL1       -0.0024
     18 C         139.5417  140.0743  168.4258 C.2     1  UNL1        0.0203
     19 C         139.9482  140.9040  169.6076 C.2     1  UNL1        0.1007
     20 N         139.9088  140.6366  171.0830 N.2     1  UNL1       -0.1482
     21 N         140.4507  141.8448  171.7877 N.2     1  UNL1       -0.1467
     22 C         140.8251  142.8589  170.7478 C.2     1  UNL1        0.1197
     23 C         140.5146  142.2774  169.4004 C.2     1  UNL1        0.0225
     24 C         140.6744  142.8213  168.0116 C.3     1  UNL1        0.0558
     25 C         140.1472  145.9940  157.9357 C.3     1  UNL1        0.1518
     26 N         141.0627  146.4467  156.8370 N.3     1  UNL1       -0.3134
     27 H         141.7172  147.1380  157.2031 H       1  UNL1        0.1193
     28 H         140.5125  146.8636  156.0861 H       1  UNL1        0.1193
     29 C         144.2417  141.8102  163.1657 C.3     1  UNL1        0.0885
     30 C         145.5425  141.7688  163.9114 C.3     1  UNL1        0.0246
     31 C         144.8662  140.4910  163.5117 C.3     1  UNL1        0.0246
@<TRIPOS>BOND
     1     1     2    1
     2     2     3   ar
     3     3    16    1
     4    16    17    2
     5    17    18    1
     6    18    19    2
     7    19    20    1
     8    20    21    2
     9    21    22    1
    10    22    23    2
    11    23    24    1
    12     3     4   ar
    13     4     5   ar
    14     5     6   ar
    15     6     7   ar
    16     7     8   ar
    17     8     9   ar
    18     9    25    1
    19    25    26    1
    20     9    10   ar
    21    10    11   ar
    22    11    12   ar
    23    12    13    2
    24    12    14   ar
    25    14    29    1
    26    29    30    1
    27    30    31    1
    28    14    15   ar
    29    15     2   ar
    30    24    16    1
    31    15     6   ar
    32    23    19    1
    33    11     7   ar
    34    31    29    1
    35    26    27    1
    36    26    28    1
@<TRIPOS>MOLECULE
*****
 31 36 0 0 0
SMALL
GASTEIGER

@<TRIPOS>ATOM
      1 C         141.2514  140.0687  165.5347 C.3     1  UNL1        0.0325
      2 C         141.6742  141.3521  164.8836 C.ar    1  UNL1       -0.0062
      3 C         142.0864  142.5213  165.7280 C.ar    1  UNL1       -0.0062
      4 C         142.5092  143.8048  165.0769 C.ar    1  UNL1       -0.0004
      5 C         142.5199  143.9191  163.5813 C.ar    1  UNL1        0.0045
      6 C         142.1077  142.7499  162.7368 C.ar    1  UNL1        0.0518
      7 C         142.1183  142.8642  161.2412 C.ar    1  UNL1        0.1704
      8 O         142.4837  143.9930  160.3234 O.2     1  UNL1       -0.4368
      9 C         142.2974  143.5214  158.9117 C.ar    1  UNL1        0.2217
     10 N         141.8168  142.1012  158.9570 N.ar    1  UNL1       -0.2060
     11 C         141.7062  141.6950  160.3967 C.ar    1  UNL1        0.1744
     12 C         141.2833  140.4116  161.0479 C.ar    1  UNL1        0.2816
     13 O         140.8711  139.2424  160.2034 O.2     1  UNL1       -0.2652
     14 N         141.2727  140.2973  162.5434 N.ar    1  UNL1       -0.2963
     15 C         141.6848  141.4664  163.3879 C.ar    1  UNL1        0.0614
     16 C         142.0757  142.4071  167.2236 C.2     1  UNL1       -0.0179
     17 C         143.3512  142.1330  167.9639 C.2     1  UNL1       -0.0024
     18 C         143.3407  142.0188  169.4595 C.2     1  UNL1        0.0203
     19 C         142.0546  142.1785  170.2149 C.2     1  UNL1        0.1007
     20 N         141.7367  142.1188  171.6796 N.2     1  UNL1       -0.1482
     21 N         140.2648  142.3560  171.8445 N.2     1  UNL1       -0.1467
     22 C         139.6729  142.5622  170.4818 C.2     1  UNL1        0.1197
     23 C         140.7791  142.4526  169.4746 C.2     1  UNL1        0.0225
     24 C         140.7896  142.5668  167.9789 C.3     1  UNL1        0.0558
     25 C         142.5476  144.3284  157.6723 C.3     1  UNL1        0.1518
     26 N         142.5515  145.8268  157.7410 N.3     1  UNL1       -0.3134
     27 H         141.6159  146.1589  157.9748 H       1  UNL1        0.1193
     28 H         142.8316  146.2079  156.8372 H       1  UNL1        0.1193
     29 C         140.8498  139.0138  163.1945 C.3     1  UNL1        0.0885
     30 C         141.1836  137.6403  163.6967 C.3     1  UNL1        0.0246
     31 C         139.7835  138.1642  163.8201 C.3     1  UNL1        0.0246
@<TRIPOS>BOND
     1     1     2    1
     2     2     3   ar
     3     3    16    1
     4    16    17    2
     5    17    18    1
     6    18    19    2
     7    19    20    1
     8    20    21    2
     9    21    22    1
    10    22    23    2
    11    23    24    1
    12     3     4   ar
    13     4     5   ar
    14     5     6   ar
    15     6     7   ar
    16     7     8   ar
    17     8     9   ar
    18     9    25    1
    19    25    26    1
    20     9    10   ar
    21    10    11   ar
    22    11    12   ar
    23    12    13    2
    24    12    14   ar
    25    14    29    1
    26    29    30    1
    27    30    31    1
    28    14    15   ar
    29    15     2   ar
    30    24    16    1
    31    15     6   ar
    32    23    19    1
    33    11     7   ar
    34    31    29    1
    35    26    27    1
    36    26    28    1
@<TRIPOS>MOLECULE
*****
 31 36 0 0 0
SMALL
GASTEIGER

@<TRIPOS>ATOM
      1 C         139.3293  142.6739  165.4667 C.3     1  UNL1        0.0325
      2 C         139.8117  141.3734  164.8959 C.ar    1  UNL1       -0.0062
      3 C         140.3013  140.2890  165.8094 C.ar    1  UNL1       -0.0062
      4 C         140.7837  138.9884  165.2386 C.ar    1  UNL1       -0.0004
      5 C         140.7765  138.7721  163.7544 C.ar    1  UNL1        0.0045
      6 C         140.2869  139.8565  162.8408 C.ar    1  UNL1        0.0518
      7 C         140.2797  139.6403  161.3565 C.ar    1  UNL1        0.1704
      8 O         140.6920  138.4723  160.5103 O.2     1  UNL1       -0.4368
      9 C         140.4571  138.8348  159.0739 C.ar    1  UNL1        0.2217
     10 N         139.8998  140.2268  159.0322 N.ar    1  UNL1       -0.2060
     11 C         139.7901  140.7246  160.4430 C.ar    1  UNL1        0.1744
     12 C         139.3078  142.0252  161.0138 C.ar    1  UNL1        0.2816
     13 O         138.8182  143.1095  160.1002 O.2     1  UNL1       -0.2652
     14 N         139.3150  142.2414  162.4981 N.ar    1  UNL1       -0.2963
     15 C         139.8045  141.1571  163.4115 C.ar    1  UNL1        0.0614
     16 C         140.3085  140.5052  167.2937 C.2     1  UNL1       -0.0179
     17 C         139.2177  139.9215  168.1420 C.2     1  UNL1       -0.0024
     18 C         139.2249  140.1376  169.6263 C.2     1  UNL1        0.0203
     19 C         140.3228  140.9376  170.2624 C.2     1  UNL1        0.1007
     20 N         140.5925  141.3151  171.6888 N.2     1  UNL1       -0.1482
     21 N         141.8500  142.1322  171.7222 N.2     1  UNL1       -0.1467
     22 C         142.3575  142.2597  170.3164 C.2     1  UNL1        0.1197
     23 C         141.4135  141.5213  169.4142 C.2     1  UNL1        0.0225
     24 C         141.4064  141.3052  167.9298 C.3     1  UNL1        0.0558
     25 C         140.7315  137.9591  157.8874 C.3     1  UNL1        0.1518
     26 N         139.6000  137.2615  157.1925 N.3     1  UNL1       -0.3134
     27 H         139.1878  136.5724  157.8215 H       1  UNL1        0.1193
     28 H         139.9511  136.7925  156.3575 H       1  UNL1        0.1193
     29 C         138.8325  143.5420  163.0688 C.3     1  UNL1        0.0885
     30 C         137.7250  144.3823  163.6322 C.3     1  UNL1        0.0246
     31 C         139.1046  144.9546  163.4940 C.3     1  UNL1        0.0246
@<TRIPOS>BOND
     1     1     2    1
     2     2     3   ar
     3     3    16    1
     4    16    17    2
     5    17    18    1
     6    18    19    2
     7    19    20    1
     8    20    21    2
     9    21    22    1
    10    22    23    2
    11    23    24    1
    12     3     4   ar
    13     4     5   ar
    14     5     6   ar
    15     6     7   ar
    16     7     8   ar
    17     8     9   ar
    18     9    25    1
    19    25    26    1
    20     9    10   ar
    21    10    11   ar
    22    11    12   ar
    23    12    13    2
    24    12    14   ar
    25    14    29    1
    26    29    30    1
    27    30    31    1
    28    14    15   ar
    29    15     2   ar
    30    24    16    1
    31    15     6   ar
    32    23    19    1
    33    11     7   ar
    34    31    29    1
    35    26    27    1
    36    26    28    1
@<TRIPOS>MOLECULE
*****
 31 36 0 0 0
SMALL
GASTEIGER

@<TRIPOS>ATOM
      1 C         142.2497  142.8607  165.4781 C.3     1  UNL1        0.0325
      2 C         141.0315  142.2842  164.8196 C.ar    1  UNL1       -0.0062
      3 C         140.0431  141.4975  165.6285 C.ar    1  UNL1       -0.0062
      4 C         138.8248  140.9210  164.9701 C.ar    1  UNL1       -0.0004
      5 C         138.5950  141.1311  163.5028 C.ar    1  UNL1        0.0045
      6 C         139.5833  141.9177  162.6938 C.ar    1  UNL1        0.0518
      7 C         139.3535  142.1278  161.2265 C.ar    1  UNL1        0.1704
      8 O         138.2529  141.6835  160.3093 O.2     1  UNL1       -0.4368
      9 C         138.5612  142.1956  158.9335 C.ar    1  UNL1        0.2217
     10 N         139.8522  142.9563  159.0005 N.ar    1  UNL1       -0.2060
     11 C         140.3419  142.9144  160.4176 C.ar    1  UNL1        0.1744
     12 C         141.5602  143.4909  161.0761 C.ar    1  UNL1        0.2816
     13 O         142.5486  144.2775  160.2672 O.2     1  UNL1       -0.2652
     14 N         141.7900  143.2808  162.5434 N.ar    1  UNL1       -0.2963
     15 C         140.8017  142.4943  163.3522 C.ar    1  UNL1        0.0614
     16 C         140.2729  141.2874  167.0958 C.2     1  UNL1       -0.0179
     17 C         140.8185  139.9805  167.5899 C.2     1  UNL1       -0.0024
     18 C         141.0484  139.7703  169.0572 C.2     1  UNL1        0.0203
     19 C         140.7326  140.8671  170.0305 C.2     1  UNL1        0.1007
     20 N         140.8540  140.9501  171.5233 N.2     1  UNL1       -0.1482
     21 N         140.3834  142.3084  171.9518 N.2     1  UNL1       -0.1467
     22 C         139.9711  143.0649  170.7239 C.2     1  UNL1        0.1197
     23 C         140.1869  142.1741  169.5364 C.2     1  UNL1        0.0225
     24 C         139.9571  142.3843  168.0691 C.3     1  UNL1        0.0558
     25 C         137.7251  141.9840  157.7062 C.3     1  UNL1        0.1518
     26 N         137.1281  140.6363  157.4286 N.3     1  UNL1       -0.3134
     27 H         137.8740  139.9653  157.2447 H       1  UNL1        0.1193
     28 H         136.5166  140.6965  156.6144 H       1  UNL1        0.1193
     29 C         143.0083  143.8574  163.2018 C.3     1  UNL1        0.0885
     30 C         143.6886  144.9915  163.9095 C.3     1  UNL1        0.0246
     31 C         144.4382  143.7217  163.6344 C.3     1  UNL1        0.0246
@<TRIPOS>BOND
     1     1     2    1
     2     2     3   ar
     3     3    16    1
     4    16    17    2
     5    17    18    1
     6    18    19    2
     7    19    20    1
     8    20    21    2
     9    21    22    1
    10    22    23    2
    11    23    24    1
    12     3     4   ar
    13     4     5   ar
    14     5     6   ar
    15     6     7   ar
    16     7     8   ar
    17     8     9   ar
    18     9    25    1
    19    25    26    1
    20     9    10   ar
    21    10    11   ar
    22    11    12   ar
    23    12    13    2
    24    12    14   ar
    25    14    29    1
    26    29    30    1
    27    30    31    1
    28    14    15   ar
    29    15     2   ar
    30    24    16    1
    31    15     6   ar
    32    23    19    1
    33    11     7   ar
    34    31    29    1
    35    26    27    1
    36    26    28    1
@<TRIPOS>MOLECULE
*****
 31 36 0 0 0
SMALL
GASTEIGER

@<TRIPOS>ATOM
      1 C         142.5184  142.7927  165.7450 C.3     1  UNL1        0.0325
      2 C         142.3446  141.4385  165.1238 C.ar    1  UNL1       -0.0062
      3 C         142.0271  140.2529  165.9862 C.ar    1  UNL1       -0.0062
      4 C         141.8533  138.8987  165.3650 C.ar    1  UNL1       -0.0004
      5 C         141.9970  138.7300  163.8815 C.ar    1  UNL1        0.0045
      6 C         142.3146  139.9155  163.0191 C.ar    1  UNL1        0.0518
      7 C         142.4583  139.7468  161.5355 C.ar    1  UNL1        0.1704
      8 O         142.3437  138.5442  160.6464 O.2     1  UNL1       -0.4368
      9 C         142.5904  138.9865  159.2345 C.ar    1  UNL1        0.2217
     10 N         142.8575  140.4625  159.2510 N.ar    1  UNL1       -0.2060
     11 C         142.7759  140.9324  160.6732 C.ar    1  UNL1        0.1744
     12 C         142.9497  142.2866  161.2944 C.ar    1  UNL1        0.2816
     13 O         143.2672  143.4721  160.4320 O.2     1  UNL1       -0.2652
     14 N         142.8059  142.4553  162.7779 N.ar    1  UNL1       -0.2963
     15 C         142.4884  141.2698  163.6402 C.ar    1  UNL1        0.0614
     16 C         141.8833  140.4216  167.4697 C.2     1  UNL1       -0.0179
     17 C         142.6871  139.5657  168.4032 C.2     1  UNL1       -0.0024
     18 C         142.5434  139.7343  169.8867 C.2     1  UNL1        0.0203
     19 C         141.5959  140.7589  170.4368 C.2     1  UNL1        0.1007
     20 N         141.2451  141.1495  171.8419 N.2     1  UNL1       -0.1482
     21 N         140.2245  142.2469  171.7768 N.2     1  UNL1       -0.1467
     22 C         139.9445  142.5345  170.3315 C.2     1  UNL1        0.1197
     23 C         140.7921  141.6148  169.5033 C.2     1  UNL1        0.0225
     24 C         140.9358  141.4462  168.0197 C.3     1  UNL1        0.0558
     25 C         142.5731  138.1073  158.0193 C.3     1  UNL1        0.1518
     26 N         143.5569  138.3398  156.9112 N.3     1  UNL1       -0.3134
     27 H         143.3681  139.2411  156.4725 H       1  UNL1        0.1193
     28 H         143.4682  137.5983  156.2165 H       1  UNL1        0.1193
     29 C         142.9798  143.8096  163.3990 C.3     1  UNL1        0.0885
     30 C         142.4102  145.1388  163.7975 C.3     1  UNL1        0.0246
     31 C         143.8505  144.8260  164.0764 C.3     1  UNL1        0.0246
@<TRIPOS>BOND
     1     1     2    1
     2     2     3   ar
     3     3    16    1
     4    16    17    2
     5    17    18    1
     6    18    19    2
     7    19    20    1
     8    20    21    2
     9    21    22    1
    10    22    23    2
    11    23    24    1
    12     3     4   ar
    13     4     5   ar
    14     5     6   ar
    15     6     7   ar
    16     7     8   ar
    17     8     9   ar
    18     9    25    1
    19    25    26    1
    20     9    10   ar
    21    10    11   ar
    22    11    12   ar
    23    12    13    2
    24    12    14   ar
    25    14    29    1
    26    29    30    1
    27    30    31    1
    28    14    15   ar
    29    15     2   ar
    30    24    16    1
    31    15     6   ar
    32    23    19    1
    33    11     7   ar
    34    31    29    1
    35    26    27    1
    36    26    28    1
@<TRIPOS>MOLECULE
*****
 31 36 0 0 0
SMALL
GASTEIGER

@<TRIPOS>ATOM
      1 C         140.1982  143.1714  165.8361 C.3     1  UNL1        0.0325
      2 C         141.4506  142.7432  165.1303 C.ar    1  UNL1       -0.0062
      3 C         142.5765  142.1280  165.9074 C.ar    1  UNL1       -0.0062
      4 C         143.8289  141.6998  165.2016 C.ar    1  UNL1       -0.0004
      5 C         143.9554  141.8866  163.7188 C.ar    1  UNL1        0.0045
      6 C         142.8295  142.5017  162.9415 C.ar    1  UNL1        0.0518
      7 C         142.9560  142.6886  161.4586 C.ar    1  UNL1        0.1704
      8 O         144.0611  142.3660  160.4970 O.2     1  UNL1       -0.4368
      9 C         143.6181  142.7817  159.1255 C.ar    1  UNL1        0.2217
     10 N         142.2393  143.3613  159.2395 N.ar    1  UNL1       -0.2060
     11 C         141.8301  143.3038  160.6815 C.ar    1  UNL1        0.1744
     12 C         140.5777  143.7320  161.3872 C.ar    1  UNL1        0.2816
     13 O         139.4518  144.3472  160.6101 O.2     1  UNL1       -0.2652
     14 N         140.4513  143.5451  162.8702 N.ar    1  UNL1       -0.2963
     15 C         141.5771  142.9300  163.6473 C.ar    1  UNL1        0.0614
     16 C         142.4500  141.9411  167.3903 C.2     1  UNL1       -0.0179
     17 C         143.5195  142.4595  168.3055 C.2     1  UNL1       -0.0024
     18 C         143.3931  142.2727  169.7884 C.2     1  UNL1        0.0203
     19 C         142.1972  141.5674  170.3563 C.2     1  UNL1        0.1007
     20 N         141.8016  141.2378  171.7651 N.2     1  UNL1       -0.1482
     21 N         140.4876  140.5156  171.7207 N.2     1  UNL1       -0.1467
     22 C         140.0711  140.3989  170.2844 C.2     1  UNL1        0.1197
     23 C         141.1277  141.0490  169.4411 C.2     1  UNL1        0.0225
     24 C         141.2541  141.2359  167.9581 C.3     1  UNL1        0.0558
     25 C         144.4142  142.6424  157.8619 C.3     1  UNL1        0.1518
     26 N         145.9045  142.8101  157.8919 N.3     1  UNL1       -0.3134
     27 H         146.1333  143.7746  158.1323 H       1  UNL1        0.1193
     28 H         146.2902  142.5877  156.9742 H       1  UNL1        0.1193
     29 C         139.1988  143.9734  163.5759 C.3     1  UNL1        0.0885
     30 C         138.5006  144.8734  164.5519 C.3     1  UNL1        0.0246
     31 C         137.7276  143.8151  163.8222 C.3     1  UNL1        0.0246
@<TRIPOS>BOND
     1     1     2    1
     2     2     3   ar
     3     3    16    1
     4    16    17    2
     5    17    18    1
     6    18    19    2
     7    19    20    1
     8    20    21    2
     9    21    22    1
    10    22    23    2
    11    23    24    1
    12     3     4   ar
    13     4     5   ar
    14     5     6   ar
    15     6     7   ar
    16     7     8   ar
    17     8     9   ar
    18     9    25    1
    19    25    26    1
    20     9    10   ar
    21    10    11   ar
    22    11    12   ar
    23    12    13    2
    24    12    14   ar
    25    14    29    1
    26    29    30    1
    27    30    31    1
    28    14    15   ar
    29    15     2   ar
    30    24    16    1
    31    15     6   ar
    32    23    19    1
    33    11     7   ar
    34    31    29    1
    35    26    27    1
    36    26    28    1
@<TRIPOS>MOLECULE
*****
 31 36 0 0 0
SMALL
GASTEIGER

@<TRIPOS>ATOM
      1 C         139.8770  142.8228  165.2195 C.3     1  UNL1        0.0325
      2 C         140.4358  141.5719  164.6089 C.ar    1  UNL1       -0.0062
      3 C         141.2173  140.6095  165.4533 C.ar    1  UNL1       -0.0062
      4 C         141.7761  139.3585  164.8427 C.ar    1  UNL1       -0.0004
      5 C         141.5535  139.0699  163.3877 C.ar    1  UNL1        0.0045
      6 C         140.7721  140.0323  162.5432 C.ar    1  UNL1        0.0518
      7 C         140.5494  139.7438  161.0881 C.ar    1  UNL1        0.1704
      8 O         140.9755  138.6011  160.2149 O.2     1  UNL1       -0.4368
      9 C         140.4574  138.8573  158.8307 C.ar    1  UNL1        0.2217
     10 N         139.7110  140.1583  158.8485 N.ar    1  UNL1       -0.2060
     11 C         139.7679  140.7062  160.2437 C.ar    1  UNL1        0.1744
     12 C         139.2091  141.9571  160.8543 C.ar    1  UNL1        0.2816
     13 O         138.4276  142.9196  160.0099 O.2     1  UNL1       -0.2652
     14 N         139.4317  142.2457  162.3094 N.ar    1  UNL1       -0.2963
     15 C         140.2132  141.2833  163.1537 C.ar    1  UNL1        0.0614
     16 C         141.4400  140.8980  166.9083 C.2     1  UNL1       -0.0179
     17 C         142.6141  141.7269  167.3374 C.2     1  UNL1       -0.0024
     18 C         142.8369  142.0155  168.7924 C.2     1  UNL1        0.0203
     19 C         141.8854  141.4751  169.8185 C.2     1  UNL1        0.1007
     20 N         141.8480  141.5929  171.3134 N.2     1  UNL1       -0.1482
     21 N         140.6507  140.8368  171.8082 N.2     1  UNL1       -0.1467
     22 C         139.9481  140.2516  170.6191 C.2     1  UNL1        0.1197
     23 C         140.7112  140.6461  169.3894 C.2     1  UNL1        0.0225
     24 C         140.4884  140.3575  167.9343 C.3     1  UNL1        0.0558
     25 C         140.6515  137.9685  157.6381 C.3     1  UNL1        0.1518
     26 N         139.4685  137.3080  156.9944 N.3     1  UNL1       -0.3134
     27 H         139.0595  136.6358  157.6435 H       1  UNL1        0.1193
     28 H         139.7680  136.8243  156.1479 H       1  UNL1        0.1193
     29 C         138.8728  143.4967  162.9199 C.3     1  UNL1        0.0885
     30 C         139.0228  144.9444  163.2824 C.3     1  UNL1        0.0246
     31 C         137.7547  144.2155  163.6150 C.3     1  UNL1        0.0246
@<TRIPOS>BOND
     1     1     2    1
     2     2     3   ar
     3     3    16    1
     4    16    17    2
     5    17    18    1
     6    18    19    2
     7    19    20    1
     8    20    21    2
     9    21    22    1
    10    22    23    2
    11    23    24    1
    12     3     4   ar
    13     4     5   ar
    14     5     6   ar
    15     6     7   ar
    16     7     8   ar
    17     8     9   ar
    18     9    25    1
    19    25    26    1
    20     9    10   ar
    21    10    11   ar
    22    11    12   ar
    23    12    13    2
    24    12    14   ar
    25    14    29    1
    26    29    30    1
    27    30    31    1
    28    14    15   ar
    29    15     2   ar
    30    24    16    1
    31    15     6   ar
    32    23    19    1
    33    11     7   ar
    34    31    29    1
    35    26    27    1
    36    26    28    1
@<TRIPOS>MOLECULE
*****
 31 36 0 0 0
SMALL
GASTEIGER

@<TRIPOS>ATOM
      1 C         139.5086  142.9456  165.1967 C.3     1  UNL1        0.0325
      2 C         140.4095  141.8827  164.6413 C.ar    1  UNL1       -0.0062
      3 C         141.0995  140.9253  165.5673 C.ar    1  UNL1       -0.0062
      4 C         142.0005  139.8624  165.0119 C.ar    1  UNL1       -0.0004
      5 C         142.2114  139.7567  163.5306 C.ar    1  UNL1        0.0045
      6 C         141.5215  140.7141  162.6046 C.ar    1  UNL1        0.0518
      7 C         141.7324  140.6085  161.1233 C.ar    1  UNL1        0.1704
      8 O         142.5561  139.6710  160.2911 O.2     1  UNL1       -0.4368
      9 C         142.3752  140.0489  158.8508 C.ar    1  UNL1        0.2217
     10 N         141.4397  141.2200  158.7928 N.ar    1  UNL1       -0.2060
     11 C         141.0424  141.5658  160.1973 C.ar    1  UNL1        0.1744
     12 C         140.1415  142.6288  160.7527 C.ar    1  UNL1        0.2816
     13 O         139.4515  143.5861  159.8267 O.2     1  UNL1       -0.2652
     14 N         139.9305  142.7344  162.2340 N.ar    1  UNL1       -0.2963
     15 C         140.6205  141.7771  163.1599 C.ar    1  UNL1        0.0614
     16 C         140.8886  141.0309  167.0486 C.2     1  UNL1       -0.0179
     17 C         139.7135  140.3534  167.6890 C.2     1  UNL1       -0.0024
     18 C         139.5025  140.4589  169.1703 C.2     1  UNL1        0.0203
     19 C         140.4666  141.2421  170.0113 C.2     1  UNL1        0.1007
     20 N         140.5171  141.5206  171.4843 N.2     1  UNL1       -0.1482
     21 N         141.7234  142.3704  171.7543 N.2     1  UNL1       -0.1467
     22 C         142.4185  142.6169  170.4482 C.2     1  UNL1        0.1197
     23 C         141.6417  141.9196  169.3709 C.2     1  UNL1        0.0225
     24 C         141.8528  141.8140  167.8895 C.3     1  UNL1        0.0558
     25 C         143.0172  139.3743  157.6749 C.3     1  UNL1        0.1518
     26 N         144.4122  139.7451  157.2670 N.3     1  UNL1       -0.3134
     27 H         144.4249  140.7104  156.9377 H       1  UNL1        0.1193
     28 H         144.7233  139.1264  156.5181 H       1  UNL1        0.1193
     29 C         139.0295  143.7974  162.7893 C.3     1  UNL1        0.0885
     30 C         138.8312  145.1890  163.3128 C.3     1  UNL1        0.0246
     31 C         137.6672  144.2468  163.2277 C.3     1  UNL1        0.0246
@<TRIPOS>BOND
     1     1     2    1
     2     2     3   ar
     3     3    16    1
     4    16    17    2
     5    17    18    1
     6    18    19    2
     7    19    20    1
     8    20    21    2
     9    21    22    1
    10    22    23    2
    11    23    24    1
    12     3     4   ar
    13     4     5   ar
    14     5     6   ar
    15     6     7   ar
    16     7     8   ar
    17     8     9   ar
    18     9    25    1
    19    25    26    1
    20     9    10   ar
    21    10    11   ar
    22    11    12   ar
    23    12    13    2
    24    12    14   ar
    25    14    29    1
    26    29    30    1
    27    30    31    1
    28    14    15   ar
    29    15     2   ar
    30    24    16    1
    31    15     6   ar
    32    23    19    1
    33    11     7   ar
    34    31    29    1
    35    26    27    1
    36    26    28    1
@<TRIPOS>MOLECULE
*****
 31 36 0 0 0
SMALL
GASTEIGER

@<TRIPOS>ATOM
      1 C         142.5769  140.5633  165.2639 C.3     1  UNL1        0.0325
      2 C         141.3216  140.6105  164.4440 C.ar    1  UNL1       -0.0062
      3 C         139.9977  140.8368  165.1119 C.ar    1  UNL1       -0.0062
      4 C         138.7425  140.8839  164.2920 C.ar    1  UNL1       -0.0004
      5 C         138.8111  140.7048  162.8044 C.ar    1  UNL1        0.0045
      6 C         140.1350  140.4785  162.1364 C.ar    1  UNL1        0.0518
      7 C         140.2037  140.2993  160.6488 C.ar    1  UNL1        0.1704
      8 O         139.1431  140.2967  159.5881 O.2     1  UNL1       -0.4368
      9 C         139.8115  140.0688  158.2648 C.ar    1  UNL1        0.2217
     10 N         141.2853  139.9305  158.5076 N.ar    1  UNL1       -0.2060
     11 C         141.5277  140.0730  159.9810 C.ar    1  UNL1        0.1744
     12 C         142.7829  140.0258  160.8008 C.ar    1  UNL1        0.2816
     13 O         144.1068  139.7995  160.1330 O.2     1  UNL1       -0.2652
     14 N         142.7142  140.2050  162.2885 N.ar    1  UNL1       -0.2963
     15 C         141.3903  140.4313  162.9563 C.ar    1  UNL1        0.0614
     16 C         139.9290  141.0160  166.5995 C.2     1  UNL1       -0.0179
     17 C         139.4621  139.8872  167.4701 C.2     1  UNL1       -0.0024
     18 C         139.3933  140.0663  168.9577 C.2     1  UNL1        0.0203
     19 C         139.7915  141.3742  169.5749 C.2     1  UNL1        0.1007
     20 N         139.8281  141.8419  170.9996 N.2     1  UNL1       -0.1482
     21 N         140.3176  143.2598  171.0096 N.2     1  UNL1       -0.1467
     22 C         140.5836  143.6684  169.5911 C.2     1  UNL1        0.1197
     23 C         140.2584  142.5030  168.7044 C.2     1  UNL1        0.0225
     24 C         140.3271  142.3239  167.2166 C.3     1  UNL1        0.0558
     25 C         139.1265  139.9926  156.9325 C.3     1  UNL1        0.1518
     26 N         137.6339  140.1154  156.8485 N.3     1  UNL1       -0.3134
     27 H         137.2004  139.3153  157.3094 H       1  UNL1        0.1193
     28 H         137.3492  140.1391  155.8694 H       1  UNL1        0.1193
     29 C         143.9695  140.1578  163.1083 C.3     1  UNL1        0.0885
     30 C         144.8991  139.4118  164.0190 C.3     1  UNL1        0.0246
     31 C         145.2141  140.8224  163.6176 C.3     1  UNL1        0.0246
@<TRIPOS>BOND
     1     1     2    1
     2     2     3   ar
     3     3    16    1
     4    16    17    2
     5    17    18    1
     6    18    19    2
     7    19    20    1
     8    20    21    2
     9    21    22    1
    10    22    23    2
    11    23    24    1
    12     3     4   ar
    13     4     5   ar
    14     5     6   ar
    15     6     7   ar
    16     7     8   ar
    17     8     9   ar
    18     9    25    1
    19    25    26    1
    20     9    10   ar
    21    10    11   ar
    22    11    12   ar
    23    12    13    2
    24    12    14   ar
    25    14    29    1
    26    29    30    1
    27    30    31    1
    28    14    15   ar
    29    15     2   ar
    30    24    16    1
    31    15     6   ar
    32    23    19    1
    33    11     7   ar
    34    31    29    1
    35    26    27    1
    36    26    28    1
