@<TRIPOS>MOLECULE
*****
 25 26 0 0 0
SMALL
GASTEIGER

@<TRIPOS>ATOM
      1 C         139.8948  140.7475  167.1224 C.ar    1  UNL1        0.1413
      2 C         140.4574  142.1299  167.2724 C.ar    1  UNL1        0.0370
      3 C         140.1465  143.1813  166.2487 C.ar    1  UNL1        0.0031
      4 C         139.2731  142.8503  165.0751 C.ar    1  UNL1        0.0003
      5 C         138.7105  141.4680  164.9251 C.ar    1  UNL1        0.0059
      6 C         139.0214  140.4166  165.9488 C.ar    1  UNL1        0.0686
      7 C         138.4587  139.0341  165.7987 C.2     1  UNL1        0.1763
      8 O         137.4152  138.5410  166.7568 O.2     1  UNL1       -0.2912
      9 C         138.9396  138.1449  164.6906 C.3     1  UNL1        0.0739
     10 C         140.1932  137.3399  164.8654 C.3     1  UNL1        0.0345
     11 C         141.5239  137.9395  164.5194 C.ar    1  UNL1       -0.0217
     12 C         142.3905  138.5157  165.5997 C.ar    1  UNL1       -0.0043
     13 C         143.7212  139.1153  165.2537 C.ar    1  UNL1       -0.0003
     14 C         144.1853  139.1387  163.8276 C.ar    1  UNL1       -0.0000
     15 C         143.3187  138.5625  162.7472 C.ar    1  UNL1       -0.0003
     16 C         141.9880  137.9629  163.0932 C.ar    1  UNL1       -0.0043
     17 O         140.2057  139.6961  168.1461 O.3     1  UNL1       -0.4727
     18 C         141.1136  140.0148  169.2967 C.3     1  UNL1        0.2357
     19 C         140.5337  140.3810  170.6307 C.3     1  UNL1        0.1695
     20 O         139.7451  139.3697  171.4088 O.3     1  UNL1       -0.3793
     21 H         139.4444  139.7655  172.2417 H       1  UNL1        0.2106
     22 N         142.0709  142.1386  171.7699 N.3     1  UNL1       -0.3190
     23 C         140.7423  141.7585  171.1866 C.3     1  UNL1        0.0986
     24 H         142.0348  143.1038  172.0977 H       1  UNL1        0.1189
     25 H         142.7939  142.0489  171.0559 H       1  UNL1        0.1189
@<TRIPOS>BOND
     1    22    23    1
     2    23    19    1
     3    19    20    1
     4    19    18    1
     5    18    17    1
     6    17     1    1
     7     1     2   ar
     8     2     3   ar
     9     3     4   ar
    10     4     5   ar
    11     5     6   ar
    12     6     7    1
    13     7     8    2
    14     7     9    1
    15     9    10    1
    16    10    11    1
    17    11    12   ar
    18    12    13   ar
    19    13    14   ar
    20    14    15   ar
    21    15    16   ar
    22     6     1   ar
    23    16    11   ar
    24    22    24    1
    25    22    25    1
    26    20    21    1
@<TRIPOS>MOLECULE
*****
 25 26 0 0 0
SMALL
GASTEIGER

@<TRIPOS>ATOM
      1 C         139.7196  139.7725  167.1988 C.ar    1  UNL1        0.1413
      2 C         138.3526  139.1558  167.1695 C.ar    1  UNL1        0.0370
      3 C         138.0085  138.1443  166.1168 C.ar    1  UNL1        0.0031
      4 C         139.0314  137.7494  165.0932 C.ar    1  UNL1        0.0003
      5 C         140.3984  138.3660  165.1225 C.ar    1  UNL1        0.0059
      6 C         140.7425  139.3776  166.1753 C.ar    1  UNL1        0.0686
      7 C         142.1096  139.9943  166.2045 C.2     1  UNL1        0.1763
      8 O         143.2699  139.2204  166.7567 O.2     1  UNL1       -0.2912
      9 C         142.3165  141.3849  165.6814 C.3     1  UNL1        0.0739
     10 C         141.6299  141.8221  164.4215 C.3     1  UNL1        0.0345
     11 C         140.3319  142.5702  164.4955 C.ar    1  UNL1       -0.0217
     12 C         139.0375  141.8521  164.2531 C.ar    1  UNL1       -0.0043
     13 C         137.7395  142.6002  164.3271 C.ar    1  UNL1       -0.0003
     14 C         137.7359  144.0664  164.6434 C.ar    1  UNL1       -0.0000
     15 C         139.0303  144.7846  164.8858 C.ar    1  UNL1       -0.0003
     16 C         140.3283  144.0365  164.8118 C.ar    1  UNL1       -0.0043
     17 O         140.0637  140.7841  168.2516 O.3     1  UNL1       -0.4727
     18 C         139.7964  140.4833  169.6965 C.3     1  UNL1        0.2357
     19 C         140.9410  140.2969  170.6480 C.3     1  UNL1        0.1695
     20 O         140.7327  140.4962  172.1200 O.3     1  UNL1       -0.3793
     21 H         141.5669  140.3377  172.5890 H       1  UNL1        0.2106
     22 N         143.4179  139.6451  171.0844 N.3     1  UNL1       -0.3190
     23 C         142.2939  139.9111  170.1274 C.3     1  UNL1        0.0986
     24 H         144.2581  139.3977  170.5617 H       1  UNL1        0.1189
     25 H         143.1629  138.8749  171.7026 H       1  UNL1        0.1189
@<TRIPOS>BOND
     1    22    23    1
     2    23    19    1
     3    19    20    1
     4    19    18    1
     5    18    17    1
     6    17     1    1
     7     1     2   ar
     8     2     3   ar
     9     3     4   ar
    10     4     5   ar
    11     5     6   ar
    12     6     7    1
    13     7     8    2
    14     7     9    1
    15     9    10    1
    16    10    11    1
    17    11    12   ar
    18    12    13   ar
    19    13    14   ar
    20    14    15   ar
    21    15    16   ar
    22     6     1   ar
    23    16    11   ar
    24    22    24    1
    25    22    25    1
    26    20    21    1
@<TRIPOS>MOLECULE
*****
 25 26 0 0 0
SMALL
GASTEIGER

@<TRIPOS>ATOM
      1 C         140.0791  141.4911  165.6448 C.ar    1  UNL1        0.1413
      2 C         141.2741  142.2084  165.0906 C.ar    1  UNL1        0.0370
      3 C         142.6563  141.7207  165.4097 C.ar    1  UNL1        0.0031
      4 C         142.8433  140.5156  166.2831 C.ar    1  UNL1        0.0003
      5 C         141.6483  139.7983  166.8373 C.ar    1  UNL1        0.0059
      6 C         140.2661  140.2860  166.5182 C.ar    1  UNL1        0.0686
      7 C         139.0710  139.5686  167.0725 C.2     1  UNL1        0.1763
      8 O         138.7721  139.6329  168.5409 O.2     1  UNL1       -0.2912
      9 C         138.1749  138.7869  166.1582 C.3     1  UNL1        0.0739
     10 C         138.6943  137.5616  165.4663 C.3     1  UNL1        0.0345
     11 C         139.4461  137.6914  164.1748 C.ar    1  UNL1       -0.0217
     12 C         138.7094  138.0041  162.9062 C.ar    1  UNL1       -0.0043
     13 C         139.4612  138.1339  161.6148 C.ar    1  UNL1       -0.0003
     14 C         140.9498  137.9510  161.5919 C.ar    1  UNL1       -0.0000
     15 C         141.6866  137.6383  162.8605 C.ar    1  UNL1       -0.0003
     16 C         140.9348  137.5085  164.1520 C.ar    1  UNL1       -0.0043
     17 O         138.6969  141.9788  165.3257 O.3     1  UNL1       -0.4727
     18 C         138.5070  143.3023  164.6459 C.3     1  UNL1        0.2357
     19 C         137.9290  143.3589  163.2629 C.3     1  UNL1        0.1695
     20 O         137.5313  144.6780  162.6697 O.3     1  UNL1       -0.3793
     21 H         137.1786  144.5379  161.7770 H       1  UNL1        0.2106
     22 N         136.7819  141.0499  162.9422 N.3     1  UNL1       -0.3190
     23 C         137.7487  142.0965  162.4730 C.3     1  UNL1        0.0986
     24 H         136.7871  140.2655  162.2902 H       1  UNL1        0.1189
     25 H         135.8442  141.4488  162.9867 H       1  UNL1        0.1189
@<TRIPOS>BOND
     1    22    23    1
     2    23    19    1
     3    19    20    1
     4    19    18    1
     5    18    17    1
     6    17     1    1
     7     1     2   ar
     8     2     3   ar
     9     3     4   ar
    10     4     5   ar
    11     5     6   ar
    12     6     7    1
    13     7     8    2
    14     7     9    1
    15     9    10    1
    16    10    11    1
    17    11    12   ar
    18    12    13   ar
    19    13    14   ar
    20    14    15   ar
    21    15    16   ar
    22     6     1   ar
    23    16    11   ar
    24    22    24    1
    25    22    25    1
    26    20    21    1
@<TRIPOS>MOLECULE
*****
 25 26 0 0 0
SMALL
GASTEIGER

@<TRIPOS>ATOM
      1 C         139.7335  140.5985  167.0022 C.ar    1  UNL1        0.1413
      2 C         140.2274  141.9872  166.7237 C.ar    1  UNL1        0.0370
      3 C         139.7076  142.7443  165.5377 C.ar    1  UNL1        0.0031
      4 C         138.6939  142.1128  164.6302 C.ar    1  UNL1        0.0003
      5 C         138.2001  140.7241  164.9087 C.ar    1  UNL1        0.0059
      6 C         138.7199  139.9669  166.0947 C.ar    1  UNL1        0.0686
      7 C         138.2260  138.5781  166.3731 C.2     1  UNL1        0.1763
      8 O         137.3643  138.3149  167.5724 O.2     1  UNL1       -0.2912
      9 C         138.5938  137.4526  165.4523 C.3     1  UNL1        0.0739
     10 C         139.9503  137.4193  164.8131 C.3     1  UNL1        0.0345
     11 C         140.0989  137.7257  163.3523 C.ar    1  UNL1       -0.0217
     12 C         138.8818  137.9612  162.5078 C.ar    1  UNL1       -0.0043
     13 C         139.0303  138.2676  161.0470 C.ar    1  UNL1       -0.0003
     14 C         140.3960  138.3384  160.4306 C.ar    1  UNL1       -0.0000
     15 C         141.6132  138.1029  161.2751 C.ar    1  UNL1       -0.0003
     16 C         141.4646  137.7965  162.7359 C.ar    1  UNL1       -0.0043
     17 O         140.2533  139.8413  168.1882 O.3     1  UNL1       -0.4727
     18 C         139.9389  140.3142  169.5765 C.3     1  UNL1        0.2357
     19 C         141.0172  140.3505  170.6186 C.3     1  UNL1        0.1695
     20 O         140.6620  140.5816  172.0575 O.3     1  UNL1       -0.3793
     21 H         141.4695  140.5756  172.5949 H       1  UNL1        0.2106
     22 N         142.8555  138.9362  169.4481 N.3     1  UNL1       -0.3190
     23 C         142.4506  140.1558  170.2219 C.3     1  UNL1        0.0986
     24 H         143.8586  138.9670  169.2654 H       1  UNL1        0.1189
     25 H         142.3493  138.9115  168.5630 H       1  UNL1        0.1189
@<TRIPOS>BOND
     1    22    23    1
     2    23    19    1
     3    19    20    1
     4    19    18    1
     5    18    17    1
     6    17     1    1
     7     1     2   ar
     8     2     3   ar
     9     3     4   ar
    10     4     5   ar
    11     5     6   ar
    12     6     7    1
    13     7     8    2
    14     7     9    1
    15     9    10    1
    16    10    11    1
    17    11    12   ar
    18    12    13   ar
    19    13    14   ar
    20    14    15   ar
    21    15    16   ar
    22     6     1   ar
    23    16    11   ar
    24    22    24    1
    25    22    25    1
    26    20    21    1
@<TRIPOS>MOLECULE
*****
 25 26 0 0 0
SMALL
GASTEIGER

@<TRIPOS>ATOM
      1 C         139.8469  139.9191  166.8889 C.ar    1  UNL1        0.1413
      2 C         138.6789  139.3986  166.1048 C.ar    1  UNL1        0.0370
      3 C         138.9004  138.4203  164.9895 C.ar    1  UNL1        0.0031
      4 C         140.2898  137.9625  164.6583 C.ar    1  UNL1        0.0003
      5 C         141.4578  138.4830  165.4423 C.ar    1  UNL1        0.0059
      6 C         141.2363  139.4613  166.5576 C.ar    1  UNL1        0.0686
      7 C         142.4044  139.9818  167.3417 C.2     1  UNL1        0.1763
      8 O         143.0235  139.1368  168.4153 O.2     1  UNL1       -0.2912
      9 C         142.9535  141.3474  167.0521 C.3     1  UNL1        0.0739
     10 C         143.4168  141.6913  165.6675 C.3     1  UNL1        0.0345
     11 C         142.9070  142.9297  164.9920 C.ar    1  UNL1       -0.0217
     12 C         143.8737  143.9405  164.4501 C.ar    1  UNL1       -0.0043
     13 C         143.3639  145.1789  163.7745 C.ar    1  UNL1       -0.0003
     14 C         141.8873  145.4066  163.6410 C.ar    1  UNL1       -0.0000
     15 C         140.9205  144.3958  164.1829 C.ar    1  UNL1       -0.0003
     16 C         141.4303  143.1574  164.8585 C.ar    1  UNL1       -0.0043
     17 O         139.6254  140.8974  168.0042 O.3     1  UNL1       -0.4727
     18 C         139.3119  140.4022  169.3849 C.3     1  UNL1        0.2357
     19 C         140.3738  140.4119  170.4443 C.3     1  UNL1        0.1695
     20 O         141.1149  139.1504  170.7748 O.3     1  UNL1       -0.3793
     21 H         141.7614  139.3293  171.4755 H       1  UNL1        0.2106
     22 N         142.0471  141.8709  171.7939 N.3     1  UNL1       -0.3190
     23 C         140.6946  141.6831  171.1731 C.3     1  UNL1        0.0986
     24 H         142.0905  142.7850  172.2444 H       1  UNL1        0.1189
     25 H         142.7641  141.8139  171.0706 H       1  UNL1        0.1189
@<TRIPOS>BOND
     1    22    23    1
     2    23    19    1
     3    19    20    1
     4    19    18    1
     5    18    17    1
     6    17     1    1
     7     1     2   ar
     8     2     3   ar
     9     3     4   ar
    10     4     5   ar
    11     5     6   ar
    12     6     7    1
    13     7     8    2
    14     7     9    1
    15     9    10    1
    16    10    11    1
    17    11    12   ar
    18    12    13   ar
    19    13    14   ar
    20    14    15   ar
    21    15    16   ar
    22     6     1   ar
    23    16    11   ar
    24    22    24    1
    25    22    25    1
    26    20    21    1
@<TRIPOS>MOLECULE
*****
 25 26 0 0 0
SMALL
GASTEIGER

@<TRIPOS>ATOM
      1 C         141.9749  139.8973  167.0188 C.ar    1  UNL1        0.1413
      2 C         142.9456  138.7944  166.7166 C.ar    1  UNL1        0.0370
      3 C         143.8965  138.9271  165.5641 C.ar    1  UNL1        0.0031
      4 C         143.8768  140.1627  164.7139 C.ar    1  UNL1        0.0003
      5 C         142.9062  141.2656  165.0162 C.ar    1  UNL1        0.0059
      6 C         141.9552  141.1329  166.1686 C.ar    1  UNL1        0.0686
      7 C         140.9845  142.2359  166.4708 C.2     1  UNL1        0.1763
      8 O         140.9573  142.8580  167.8354 O.2     1  UNL1       -0.2912
      9 C         140.0412  142.7167  165.4083 C.3     1  UNL1        0.0739
     10 C         138.8134  141.9204  165.0792 C.3     1  UNL1        0.0345
     11 C         138.8702  140.4215  165.0761 C.ar    1  UNL1       -0.0217
     12 C         138.1666  139.6421  166.1473 C.ar    1  UNL1       -0.0043
     13 C         138.2233  138.1432  166.1443 C.ar    1  UNL1       -0.0003
     14 C         138.9837  137.4236  165.0701 C.ar    1  UNL1       -0.0000
     15 C         139.6873  138.2030  163.9988 C.ar    1  UNL1       -0.0003
     16 C         139.6306  139.7019  164.0018 C.ar    1  UNL1       -0.0043
     17 O         141.0240  139.7646  168.1712 O.3     1  UNL1       -0.4727
     18 C         141.5448  139.7698  169.5778 C.3     1  UNL1        0.2357
     19 C         140.6822  140.2771  170.6952 C.3     1  UNL1        0.1695
     20 O         139.6904  139.3630  171.3514 O.3     1  UNL1       -0.3793
     21 H         139.2185  139.8449  172.0485 H       1  UNL1        0.2106
     22 N         142.0735  142.1589  171.8237 N.3     1  UNL1       -0.3190
     23 C         140.8114  141.6987  171.1563 C.3     1  UNL1        0.0986
     24 H         141.9880  143.1452  172.0693 H       1  UNL1        0.1189
     25 H         142.8601  142.0341  171.1865 H       1  UNL1        0.1189
@<TRIPOS>BOND
     1    22    23    1
     2    23    19    1
     3    19    20    1
     4    19    18    1
     5    18    17    1
     6    17     1    1
     7     1     2   ar
     8     2     3   ar
     9     3     4   ar
    10     4     5   ar
    11     5     6   ar
    12     6     7    1
    13     7     8    2
    14     7     9    1
    15     9    10    1
    16    10    11    1
    17    11    12   ar
    18    12    13   ar
    19    13    14   ar
    20    14    15   ar
    21    15    16   ar
    22     6     1   ar
    23    16    11   ar
    24    22    24    1
    25    22    25    1
    26    20    21    1
@<TRIPOS>MOLECULE
*****
 25 26 0 0 0
SMALL
GASTEIGER

@<TRIPOS>ATOM
      1 C         141.8217  143.0449  165.1020 C.ar    1  UNL1        0.1413
      2 C         140.4796  142.6579  165.6489 C.ar    1  UNL1        0.0370
      3 C         140.3818  141.9651  166.9757 C.ar    1  UNL1        0.0031
      4 C         141.6260  141.6593  167.7557 C.ar    1  UNL1        0.0003
      5 C         142.9680  142.0463  167.2088 C.ar    1  UNL1        0.0059
      6 C         143.0659  142.7391  165.8820 C.ar    1  UNL1        0.0686
      7 C         144.4080  143.1260  165.3351 C.2     1  UNL1        0.1763
      8 O         145.2107  144.1999  166.0078 O.2     1  UNL1       -0.2912
      9 C         144.9474  142.4391  164.1156 C.3     1  UNL1        0.0739
     10 C         145.1467  140.9525  164.1187 C.3     1  UNL1        0.0345
     11 C         143.9681  140.0380  164.2756 C.ar    1  UNL1       -0.0217
     12 C         142.8480  140.0804  163.2789 C.ar    1  UNL1       -0.0043
     13 C         141.6694  139.1659  163.4359 C.ar    1  UNL1       -0.0003
     14 C         141.6108  138.2092  164.5896 C.ar    1  UNL1       -0.0000
     15 C         142.7310  138.1668  165.5864 C.ar    1  UNL1       -0.0003
     16 C         143.9096  139.0812  165.4294 C.ar    1  UNL1       -0.0043
     17 O         141.9195  143.7377  163.7752 O.3     1  UNL1       -0.4727
     18 C         141.3887  145.1315  163.6160 C.3     1  UNL1        0.2357
     19 C         140.2420  145.3957  162.6858 C.3     1  UNL1        0.1695
     20 O         140.0898  146.7443  162.0470 O.3     1  UNL1       -0.3793
     21 H         139.3033  146.7463  161.4793 H       1  UNL1        0.2106
     22 N         137.7819  144.5660  162.5874 N.3     1  UNL1       -0.3190
     23 C         139.2475  144.3112  162.3944 C.3     1  UNL1        0.0986
     24 H         137.2559  143.7267  162.3441 H       1  UNL1        0.1189
     25 H         137.4889  145.3369  161.9872 H       1  UNL1        0.1189
@<TRIPOS>BOND
     1    22    23    1
     2    23    19    1
     3    19    20    1
     4    19    18    1
     5    18    17    1
     6    17     1    1
     7     1     2   ar
     8     2     3   ar
     9     3     4   ar
    10     4     5   ar
    11     5     6   ar
    12     6     7    1
    13     7     8    2
    14     7     9    1
    15     9    10    1
    16    10    11    1
    17    11    12   ar
    18    12    13   ar
    19    13    14   ar
    20    14    15   ar
    21    15    16   ar
    22     6     1   ar
    23    16    11   ar
    24    22    24    1
    25    22    25    1
    26    20    21    1
@<TRIPOS>MOLECULE
*****
 25 26 0 0 0
SMALL
GASTEIGER

@<TRIPOS>ATOM
      1 C         139.2723  141.3623  165.7414 C.ar    1  UNL1        0.1413
      2 C         140.0318  142.5619  166.2252 C.ar    1  UNL1        0.0370
      3 C         140.8248  142.4851  167.4962 C.ar    1  UNL1        0.0031
      4 C         140.8583  141.2088  168.2834 C.ar    1  UNL1        0.0003
      5 C         140.0988  140.0092  167.7996 C.ar    1  UNL1        0.0059
      6 C         139.3058  140.0859  166.5286 C.ar    1  UNL1        0.0686
      7 C         138.5464  138.8862  166.0449 C.2     1  UNL1        0.1763
      8 O         137.3249  138.4242  166.7827 O.2     1  UNL1       -0.2912
      9 C         139.0084  138.1486  164.8232 C.3     1  UNL1        0.0739
     10 C         140.2569  137.3188  164.8755 C.3     1  UNL1        0.0345
     11 C         141.5748  137.9217  164.4888 C.ar    1  UNL1       -0.0217
     12 C         142.4873  138.4707  165.5451 C.ar    1  UNL1       -0.0043
     13 C         143.8053  139.0735  165.1583 C.ar    1  UNL1       -0.0003
     14 C         144.2107  139.1274  163.7152 C.ar    1  UNL1       -0.0000
     15 C         143.2982  138.5784  162.6588 C.ar    1  UNL1       -0.0003
     16 C         141.9803  137.9755  163.0455 C.ar    1  UNL1       -0.0043
     17 O         138.4794  141.4390  164.4705 O.3     1  UNL1       -0.4727
     18 C         137.8274  142.7292  164.0700 C.3     1  UNL1        0.2357
     19 C         138.2840  143.4488  162.8357 C.3     1  UNL1        0.1695
     20 O         137.5281  143.2868  161.5502 O.3     1  UNL1       -0.3793
     21 H         137.9527  143.8156  160.8567 H       1  UNL1        0.2106
     22 N         139.6490  145.3327  163.9923 N.3     1  UNL1       -0.3190
     23 C         139.4966  144.3304  162.8868 C.3     1  UNL1        0.0986
     24 H         140.5247  145.8416  163.8715 H       1  UNL1        0.1189
     25 H         139.6576  144.8495  164.8905 H       1  UNL1        0.1189
@<TRIPOS>BOND
     1    22    23    1
     2    23    19    1
     3    19    20    1
     4    19    18    1
     5    18    17    1
     6    17     1    1
     7     1     2   ar
     8     2     3   ar
     9     3     4   ar
    10     4     5   ar
    11     5     6   ar
    12     6     7    1
    13     7     8    2
    14     7     9    1
    15     9    10    1
    16    10    11    1
    17    11    12   ar
    18    12    13   ar
    19    13    14   ar
    20    14    15   ar
    21    15    16   ar
    22     6     1   ar
    23    16    11   ar
    24    22    24    1
    25    22    25    1
    26    20    21    1
@<TRIPOS>MOLECULE
*****
 25 26 0 0 0
SMALL
GASTEIGER

@<TRIPOS>ATOM
      1 C         143.3801  141.3265  165.5606 C.ar    1  UNL1        0.1413
      2 C         144.1303  140.3403  164.7153 C.ar    1  UNL1        0.0370
      3 C         144.1669  138.8925  165.1060 C.ar    1  UNL1        0.0031
      4 C         143.4532  138.4310  166.3420 C.ar    1  UNL1        0.0003
      5 C         142.7030  139.4173  167.1872 C.ar    1  UNL1        0.0059
      6 C         142.6665  140.8650  166.7965 C.ar    1  UNL1        0.0686
      7 C         141.9163  141.8513  167.6419 C.2     1  UNL1        0.1763
      8 O         142.5938  142.5080  168.8079 O.2     1  UNL1       -0.2912
      9 C         140.4885  142.1808  167.3211 C.3     1  UNL1        0.0739
     10 C         139.9069  141.7852  165.9963 C.3     1  UNL1        0.0345
     11 C         139.5076  140.3608  165.7477 C.ar    1  UNL1       -0.0217
     12 C         138.5462  139.6786  166.6752 C.ar    1  UNL1       -0.0043
     13 C         138.1469  138.2543  166.4266 C.ar    1  UNL1       -0.0003
     14 C         138.7091  137.5121  165.2505 C.ar    1  UNL1       -0.0000
     15 C         139.6705  138.1943  164.3229 C.ar    1  UNL1       -0.0003
     16 C         140.0698  139.6187  164.5715 C.ar    1  UNL1       -0.0043
     17 O         143.3436  142.7743  165.1698 O.3     1  UNL1       -0.4727
     18 C         143.0477  143.1610  163.7511 C.3     1  UNL1        0.2357
     19 C         142.9266  144.6088  163.3780 C.3     1  UNL1        0.1695
     20 O         144.0358  145.2855  162.6286 O.3     1  UNL1       -0.3793
     21 H         143.7992  146.2124  162.4683 H       1  UNL1        0.2106
     22 N         140.8402  145.9942  162.6867 N.3     1  UNL1       -0.3190
     23 C         141.6962  145.3800  163.7544 C.3     1  UNL1        0.0986
     24 H         140.0522  146.4769  163.1185 H       1  UNL1        0.1189
     25 H         140.4925  145.2625  162.0669 H       1  UNL1        0.1189
@<TRIPOS>BOND
     1    22    23    1
     2    23    19    1
     3    19    20    1
     4    19    18    1
     5    18    17    1
     6    17     1    1
     7     1     2   ar
     8     2     3   ar
     9     3     4   ar
    10     4     5   ar
    11     5     6   ar
    12     6     7    1
    13     7     8    2
    14     7     9    1
    15     9    10    1
    16    10    11    1
    17    11    12   ar
    18    12    13   ar
    19    13    14   ar
    20    14    15   ar
    21    15    16   ar
    22     6     1   ar
    23    16    11   ar
    24    22    24    1
    25    22    25    1
    26    20    21    1
