@<TRIPOS>MOLECULE
*****
 41 44 0 0 0
SMALL
GASTEIGER

@<TRIPOS>ATOM
      1 C         142.1213  140.9629  163.0490 C.3     1  UNL1        0.0799
      2 C         142.3995  141.3353  164.4752 C.ar    1  UNL1        0.0374
      3 C         141.5851  140.7313  165.5806 C.ar    1  UNL1        0.0023
      4 C         141.8632  141.1037  167.0067 C.ar    1  UNL1        0.0181
      5 C         141.0489  140.4997  168.1122 C.ar    1  UNL1        0.0082
      6 C         141.3270  140.8721  169.5384 C.ar    1  UNL1        0.0347
      7 BR        140.5127  140.2681  170.6438 Br      1  UNL1       -0.0490
      8 C         142.4196  141.8485  169.8591 C.ar    1  UNL1        0.0082
      9 C         143.2340  142.4526  168.7537 C.ar    1  UNL1        0.0197
     10 C         142.9558  142.0802  167.3275 C.ar    1  UNL1        0.0844
     11 N         143.7702  142.6842  166.2221 N.ar    1  UNL1       -0.2119
     12 C         143.4920  142.3118  164.7959 C.ar    1  UNL1        0.2211
     13 O         144.3064  142.9158  163.6905 O.3     1  UNL1       -0.4563
     14 C         144.0853  144.3445  163.2906 C.3     1  UNL1        0.2542
     15 C         141.3863  141.9166  162.1545 C.ar    1  UNL1        0.0148
     16 C         142.0496  142.4482  160.9187 C.ar    1  UNL1       -0.0014
     17 C         141.3146  143.4019  160.0241 C.ar    1  UNL1        0.0029
     18 C         139.9163  143.8240  160.3654 C.ar    1  UNL1        0.0392
     19 C         139.2529  143.2923  161.6013 C.ar    1  UNL1        0.1657
     20 C         139.9879  142.3386  162.4958 C.ar    1  UNL1        0.1702
     21 F         139.3246  141.8069  163.7316 F       1  UNL1       -0.2013
     22 O         137.8546  143.7143  161.9426 O.3     1  UNL1       -0.4692
     23 C         137.5851  144.4549  163.2189 C.3     1  UNL1        0.2526
     24 C         142.5782  139.6367  162.5174 C.3     1  UNL1        0.1162
     25 O         143.9996  140.1151  162.5456 O.3     1  UNL1       -0.3820
     26 H         144.5845  139.4097  162.2276 H       1  UNL1        0.2107
     27 C         139.1314  138.0508  163.6814 C.ar    1  UNL1        0.2272
     28 C         140.5528  138.5292  163.7096 C.ar    1  UNL1        0.0559
     29 C         141.1568  139.1584  162.4892 C.ar    1  UNL1        0.0117
     30 C         140.3393  139.3092  161.2407 C.ar    1  UNL1        0.0559
     31 C         138.9179  138.8308  161.2125 C.ar    1  UNL1        0.2272
     32 N         138.3140  138.2016  162.4328 N.ar    1  UNL1       -0.1767
     33 C         138.2606  138.2541  166.1208 C.3     1  UNL1        0.2542
     34 O         138.5275  137.4216  164.9019 O.3     1  UNL1       -0.4561
     35 O         138.1004  138.9816  159.9638 O.3     1  UNL1       -0.4561
     36 C         138.3159  140.1626  159.0645 C.3     1  UNL1        0.2542
     37 C         143.0350  138.3106  161.9858 C.3     1  UNL1        0.0491
     38 C         143.9656  138.2539  160.8108 C.3     1  UNL1        0.0750
     39 N         143.5122  138.7513  159.4703 N.3     1  UNL1       -0.2702
     40 C         143.9390  140.1065  158.9895 C.3     1  UNL1        0.0897
     41 C         142.6320  137.8935  158.6105 C.3     1  UNL1        0.0897
@<TRIPOS>BOND
     1    33    34    1
     2    34    27    1
     3    27    28   ar
     4    28    29   ar
     5    29    24    1
     6    24    25    1
     7    24    37    1
     8    37    38    1
     9    38    39    1
    10    39    40    1
    11    39    41    1
    12    24     1    1
    13     1     2    1
    14     2     3   ar
    15     3     4   ar
    16     4     5   ar
    17     5     6   ar
    18     6     7    1
    19     6     8   ar
    20     8     9   ar
    21     9    10   ar
    22    10    11   ar
    23    11    12   ar
    24    12    13    1
    25    13    14    1
    26     1    15    1
    27    15    16   ar
    28    16    17   ar
    29    17    18   ar
    30    18    19   ar
    31    19    22    1
    32    22    23    1
    33    19    20   ar
    34    20    21    1
    35    29    30   ar
    36    30    31   ar
    37    31    35    1
    38    35    36    1
    39    31    32   ar
    40    32    27   ar
    41    12     2   ar
    42    20    15   ar
    43    10     4   ar
    44    25    26    1
@<TRIPOS>MOLECULE
*****
 41 44 0 0 0
SMALL
GASTEIGER

@<TRIPOS>ATOM
      1 C         141.7385  141.5804  164.4751 C.3     1  UNL1        0.0799
      2 C         142.4858  141.8625  163.2054 C.ar    1  UNL1        0.0374
      3 C         141.7890  141.7419  161.8825 C.ar    1  UNL1        0.0023
      4 C         142.5362  142.0240  160.6128 C.ar    1  UNL1        0.0181
      5 C         141.8394  141.9034  159.2899 C.ar    1  UNL1        0.0082
      6 C         142.5867  142.1854  158.0202 C.ar    1  UNL1        0.0347
      7 BR        141.8899  142.0649  156.6974 Br      1  UNL1       -0.0490
      8 C         144.0307  142.5881  158.0734 C.ar    1  UNL1        0.0082
      9 C         144.7274  142.7086  159.3963 C.ar    1  UNL1        0.0197
     10 C         143.9802  142.4266  160.6660 C.ar    1  UNL1        0.0844
     11 N         144.6770  142.5472  161.9888 N.ar    1  UNL1       -0.2119
     12 C         143.9297  142.2651  163.2586 C.ar    1  UNL1        0.2211
     13 O         144.6265  142.3857  164.5814 O.3     1  UNL1       -0.4563
     14 C         144.5791  143.6796  165.3389 C.3     1  UNL1        0.2542
     15 C         142.2722  140.5750  165.4519 C.ar    1  UNL1        0.0148
     16 C         142.6697  139.2080  164.9792 C.ar    1  UNL1       -0.0014
     17 C         143.2035  138.2025  165.9560 C.ar    1  UNL1        0.0029
     18 C         143.3397  138.5639  167.4054 C.ar    1  UNL1        0.0392
     19 C         142.9421  139.9310  167.8780 C.ar    1  UNL1        0.1657
     20 C         142.4084  140.9364  166.9013 C.ar    1  UNL1        0.1702
     21 F         142.0109  142.3034  167.3739 F       1  UNL1       -0.2013
     22 O         143.0783  140.2924  169.3275 O.3     1  UNL1       -0.4692
     23 C         141.8636  140.3381  170.2064 C.3     1  UNL1        0.2526
     24 C         140.4576  142.3039  164.7679 C.3     1  UNL1        0.1162
     25 O         141.1773  143.6165  164.6732 O.3     1  UNL1       -0.3820
     26 H         140.5514  144.3406  164.8314 H       1  UNL1        0.2107
     27 C         138.4753  139.2144  166.2763 C.ar    1  UNL1        0.2272
     28 C         139.1950  140.5270  166.1816 C.ar    1  UNL1        0.0559
     29 C         139.7379  140.9912  164.8626 C.ar    1  UNL1        0.0117
     30 C         139.5610  140.1428  163.6384 C.ar    1  UNL1        0.0559
     31 C         138.8413  138.8302  163.7331 C.ar    1  UNL1        0.2272
     32 N         138.2985  138.3659  165.0521 N.ar    1  UNL1       -0.1767
     33 C         136.9071  137.6562  167.6413 C.3     1  UNL1        0.2542
     34 O         137.9324  138.7501  167.5954 O.3     1  UNL1       -0.4561
     35 O         138.6645  137.9818  162.5087 O.3     1  UNL1       -0.4561
     36 C         139.2470  138.4242  161.1992 C.3     1  UNL1        0.2542
     37 C         139.1766  143.0274  165.0608 C.3     1  UNL1        0.0491
     38 C         138.8491  144.2972  164.3327 C.3     1  UNL1        0.0750
     39 N         138.8309  144.3186  162.8330 N.3     1  UNL1       -0.2702
     40 C         139.5291  145.4187  162.0900 C.3     1  UNL1        0.0897
     41 C         138.1144  143.2397  162.0762 C.3     1  UNL1        0.0897
@<TRIPOS>BOND
     1    33    34    1
     2    34    27    1
     3    27    28   ar
     4    28    29   ar
     5    29    24    1
     6    24    25    1
     7    24    37    1
     8    37    38    1
     9    38    39    1
    10    39    40    1
    11    39    41    1
    12    24     1    1
    13     1     2    1
    14     2     3   ar
    15     3     4   ar
    16     4     5   ar
    17     5     6   ar
    18     6     7    1
    19     6     8   ar
    20     8     9   ar
    21     9    10   ar
    22    10    11   ar
    23    11    12   ar
    24    12    13    1
    25    13    14    1
    26     1    15    1
    27    15    16   ar
    28    16    17   ar
    29    17    18   ar
    30    18    19   ar
    31    19    22    1
    32    22    23    1
    33    19    20   ar
    34    20    21    1
    35    29    30   ar
    36    30    31   ar
    37    31    35    1
    38    35    36    1
    39    31    32   ar
    40    32    27   ar
    41    12     2   ar
    42    20    15   ar
    43    10     4   ar
    44    25    26    1
@<TRIPOS>MOLECULE
*****
 41 44 0 0 0
SMALL
GASTEIGER

@<TRIPOS>ATOM
      1 C         140.8533  140.5463  163.1180 C.3     1  UNL1        0.0799
      2 C         140.5125  140.4760  164.5771 C.ar    1  UNL1        0.0374
      3 C         140.7250  141.6733  165.4554 C.ar    1  UNL1        0.0023
      4 C         140.3841  141.6031  166.9144 C.ar    1  UNL1        0.0181
      5 C         140.5966  142.8003  167.7927 C.ar    1  UNL1        0.0082
      6 C         140.2558  142.7301  169.2519 C.ar    1  UNL1        0.0347
      7 BR        140.4683  143.9273  170.1302 Br      1  UNL1       -0.0490
      8 C         139.7024  141.4626  169.8326 C.ar    1  UNL1        0.0082
      9 C         139.4899  140.2654  168.9543 C.ar    1  UNL1        0.0197
     10 C         139.8308  140.3356  167.4952 C.ar    1  UNL1        0.0844
     11 N         139.6183  139.1383  166.6169 N.ar    1  UNL1       -0.2119
     12 C         139.9591  139.2086  165.1578 C.ar    1  UNL1        0.2211
     13 O         139.7466  138.0113  164.2795 O.3     1  UNL1       -0.4563
     14 C         140.7388  136.8864  164.2920 C.3     1  UNL1        0.2542
     15 C         142.0011  139.7467  162.5765 C.ar    1  UNL1        0.0148
     16 C         143.3466  139.8254  163.2349 C.ar    1  UNL1       -0.0014
     17 C         144.4944  139.0257  162.6935 C.ar    1  UNL1        0.0029
     18 C         144.2967  138.1474  161.4937 C.ar    1  UNL1        0.0392
     19 C         142.9511  138.0687  160.8354 C.ar    1  UNL1        0.1657
     20 C         141.8034  138.8683  161.3768 C.ar    1  UNL1        0.1702
     21 F         140.4579  138.7895  160.7185 F       1  UNL1       -0.2013
     22 O         142.7534  137.1903  159.6357 O.3     1  UNL1       -0.4692
     23 C         142.6332  137.8008  158.2708 C.3     1  UNL1        0.2526
     24 C         140.0464  141.4162  162.2003 C.3     1  UNL1        0.1162
     25 O         138.8343  140.5740  162.4678 O.3     1  UNL1       -0.3820
     26 H         138.0810  140.9229  161.9660 H       1  UNL1        0.2107
     27 C         143.0800  143.1242  160.2950 C.ar    1  UNL1        0.2272
     28 C         141.8679  142.2820  160.5625 C.ar    1  UNL1        0.0559
     29 C         141.2585  142.2584  161.9329 C.ar    1  UNL1        0.0117
     30 C         141.8611  143.0771  163.0358 C.ar    1  UNL1        0.0559
     31 C         143.0732  143.9193  162.7683 C.ar    1  UNL1        0.2272
     32 N         143.6826  143.9429  161.3979 N.ar    1  UNL1       -0.1767
     33 C         142.8757  143.6032  157.7496 C.3     1  UNL1        0.2542
     34 O         143.6894  143.1477  158.9245 O.3     1  UNL1       -0.4561
     35 O         143.6759  144.7381  163.8713 O.3     1  UNL1       -0.4561
     36 C         144.3538  144.0595  165.0246 C.3     1  UNL1        0.2542
     37 C         139.2394  142.2862  161.2827 C.3     1  UNL1        0.0491
     38 C         138.0573  143.0421  161.8129 C.3     1  UNL1        0.0750
     39 N         138.1454  143.7382  163.1386 N.3     1  UNL1       -0.2702
     40 C         138.8608  145.0519  163.2499 C.3     1  UNL1        0.0897
     41 C         137.5181  143.1207  164.3531 C.3     1  UNL1        0.0897
@<TRIPOS>BOND
     1    33    34    1
     2    34    27    1
     3    27    28   ar
     4    28    29   ar
     5    29    24    1
     6    24    25    1
     7    24    37    1
     8    37    38    1
     9    38    39    1
    10    39    40    1
    11    39    41    1
    12    24     1    1
    13     1     2    1
    14     2     3   ar
    15     3     4   ar
    16     4     5   ar
    17     5     6   ar
    18     6     7    1
    19     6     8   ar
    20     8     9   ar
    21     9    10   ar
    22    10    11   ar
    23    11    12   ar
    24    12    13    1
    25    13    14    1
    26     1    15    1
    27    15    16   ar
    28    16    17   ar
    29    17    18   ar
    30    18    19   ar
    31    19    22    1
    32    22    23    1
    33    19    20   ar
    34    20    21    1
    35    29    30   ar
    36    30    31   ar
    37    31    35    1
    38    35    36    1
    39    31    32   ar
    40    32    27   ar
    41    12     2   ar
    42    20    15   ar
    43    10     4   ar
    44    25    26    1
@<TRIPOS>MOLECULE
*****
 41 44 0 0 0
SMALL
GASTEIGER

@<TRIPOS>ATOM
      1 C         141.4708  141.7216  164.3271 C.3     1  UNL1        0.0799
      2 C         142.2890  141.9531  163.0913 C.ar    1  UNL1        0.0374
      3 C         142.0680  141.1031  161.8753 C.ar    1  UNL1        0.0023
      4 C         142.8861  141.3346  160.6396 C.ar    1  UNL1        0.0181
      5 C         142.6651  140.4846  159.4236 C.ar    1  UNL1        0.0082
      6 C         143.4833  140.7162  158.1879 C.ar    1  UNL1        0.0347
      7 BR        143.2623  139.8662  156.9719 Br      1  UNL1       -0.0490
      8 C         144.5225  141.7976  158.1682 C.ar    1  UNL1        0.0082
      9 C         144.7436  142.6476  159.3842 C.ar    1  UNL1        0.0197
     10 C         143.9254  142.4161  160.6199 C.ar    1  UNL1        0.0844
     11 N         144.1465  143.2661  161.8359 N.ar    1  UNL1       -0.2119
     12 C         143.3282  143.0345  163.0717 C.ar    1  UNL1        0.2211
     13 O         143.5493  143.8845  164.2877 O.3     1  UNL1       -0.4563
     14 C         144.6309  143.5293  165.2645 C.3     1  UNL1        0.2542
     15 C         142.0018  140.8492  165.4257 C.ar    1  UNL1        0.0148
     16 C         142.4271  139.4422  165.1268 C.ar    1  UNL1       -0.0014
     17 C         142.9581  138.5698  166.2254 C.ar    1  UNL1        0.0029
     18 C         143.0639  139.1044  167.6229 C.ar    1  UNL1        0.0392
     19 C         142.6386  140.5115  167.9217 C.ar    1  UNL1        0.1657
     20 C         142.1075  141.3839  166.8231 C.ar    1  UNL1        0.1702
     21 F         141.6823  142.7909  167.1220 F       1  UNL1       -0.2013
     22 O         142.7443  141.0462  169.3192 O.3     1  UNL1       -0.4692
     23 C         142.7972  140.1002  170.4822 C.3     1  UNL1        0.2526
     24 C         140.1215  142.3625  164.4641 C.3     1  UNL1        0.1162
     25 O         140.7496  143.7165  164.3159 O.3     1  UNL1       -0.3820
     26 H         140.0624  144.3991  164.3675 H       1  UNL1        0.2107
     27 C         138.7057  138.7664  163.5622 C.ar    1  UNL1        0.2272
     28 C         139.3338  140.1205  163.4140 C.ar    1  UNL1        0.0559
     29 C         139.4934  141.0084  164.6123 C.ar    1  UNL1        0.0117
     30 C         139.0249  140.5422  165.9588 C.ar    1  UNL1        0.0559
     31 C         138.3968  139.1882  166.1070 C.ar    1  UNL1        0.2272
     32 N         138.2372  138.3002  164.9087 N.ar    1  UNL1       -0.1767
     33 C         139.4074  138.0895  161.1539 C.3     1  UNL1        0.2542
     34 O         138.5461  137.8784  162.3637 O.3     1  UNL1       -0.4561
     35 O         137.9283  138.7220  167.4536 O.3     1  UNL1       -0.4561
     36 C         136.9381  137.5999  167.5562 C.3     1  UNL1        0.2542
     37 C         138.7723  143.0033  164.6012 C.3     1  UNL1        0.0491
     38 C         138.0331  143.4638  163.3799 C.3     1  UNL1        0.0750
     39 N         138.7894  144.0275  162.2136 N.3     1  UNL1       -0.2702
     40 C         139.2000  145.4702  162.2125 C.3     1  UNL1        0.0897
     41 C         139.1351  143.1485  161.0483 C.3     1  UNL1        0.0897
@<TRIPOS>BOND
     1    33    34    1
     2    34    27    1
     3    27    28   ar
     4    28    29   ar
     5    29    24    1
     6    24    25    1
     7    24    37    1
     8    37    38    1
     9    38    39    1
    10    39    40    1
    11    39    41    1
    12    24     1    1
    13     1     2    1
    14     2     3   ar
    15     3     4   ar
    16     4     5   ar
    17     5     6   ar
    18     6     7    1
    19     6     8   ar
    20     8     9   ar
    21     9    10   ar
    22    10    11   ar
    23    11    12   ar
    24    12    13    1
    25    13    14    1
    26     1    15    1
    27    15    16   ar
    28    16    17   ar
    29    17    18   ar
    30    18    19   ar
    31    19    22    1
    32    22    23    1
    33    19    20   ar
    34    20    21    1
    35    29    30   ar
    36    30    31   ar
    37    31    35    1
    38    35    36    1
    39    31    32   ar
    40    32    27   ar
    41    12     2   ar
    42    20    15   ar
    43    10     4   ar
    44    25    26    1
@<TRIPOS>MOLECULE
*****
 41 44 0 0 0
SMALL
GASTEIGER

@<TRIPOS>ATOM
      1 C         140.9050  140.6469  162.9939 C.3     1  UNL1        0.0799
      2 C         140.5604  140.5098  164.4473 C.ar    1  UNL1        0.0374
      3 C         140.7201  141.6817  165.3698 C.ar    1  UNL1        0.0023
      4 C         140.3755  141.5446  166.8232 C.ar    1  UNL1        0.0181
      5 C         140.5352  142.7166  167.7457 C.ar    1  UNL1        0.0082
      6 C         140.1905  142.5795  169.1991 C.ar    1  UNL1        0.0347
      7 BR        140.3502  143.7514  170.1216 Br      1  UNL1       -0.0490
      8 C         139.6862  141.2704  169.7301 C.ar    1  UNL1        0.0082
      9 C         139.5265  140.0984  168.8076 C.ar    1  UNL1        0.0197
     10 C         139.8711  140.2355  167.3542 C.ar    1  UNL1        0.0844
     11 N         139.7114  139.0635  166.4317 N.ar    1  UNL1       -0.2119
     12 C         140.0560  139.2007  164.9782 C.ar    1  UNL1        0.2211
     13 O         139.8963  138.0287  164.0558 O.3     1  UNL1       -0.4563
     14 C         138.6116  137.8338  163.3063 C.3     1  UNL1        0.2542
     15 C         141.9286  139.7405  162.3770 C.ar    1  UNL1        0.0148
     16 C         143.2516  139.5336  163.0528 C.ar    1  UNL1       -0.0014
     17 C         144.2753  138.6272  162.4360 C.ar    1  UNL1        0.0029
     18 C         143.9759  137.9276  161.1433 C.ar    1  UNL1        0.0392
     19 C         142.6528  138.1345  160.4675 C.ar    1  UNL1        0.1657
     20 C         141.6292  139.0409  161.0843 C.ar    1  UNL1        0.1702
     21 F         140.3062  139.2478  160.4085 F       1  UNL1       -0.2013
     22 O         142.3534  137.4349  159.1748 O.3     1  UNL1       -0.4692
     23 C         142.5237  138.1600  157.8727 C.3     1  UNL1        0.2526
     24 C         140.2260  141.6905  162.1573 C.3     1  UNL1        0.1162
     25 O         138.9045  141.0222  162.3961 O.3     1  UNL1       -0.3820
     26 H         138.2057  141.5144  161.9376 H       1  UNL1        0.2107
     27 C         143.5758  143.7164  162.8091 C.ar    1  UNL1        0.2272
     28 C         142.2543  143.0480  163.0479 C.ar    1  UNL1        0.0559
     29 C         141.5474  142.3589  161.9185 C.ar    1  UNL1        0.0117
     30 C         142.1620  142.3383  160.5504 C.ar    1  UNL1        0.0559
     31 C         143.4834  143.0067  160.3116 C.ar    1  UNL1        0.2272
     32 N         144.1903  143.6957  161.4410 N.ar    1  UNL1       -0.1767
     33 C         144.4465  143.7090  165.2569 C.3     1  UNL1        0.2542
     34 O         144.2827  144.4054  163.9386 O.3     1  UNL1       -0.4561
     35 O         144.0980  142.9860  158.9434 O.3     1  UNL1       -0.4561
     36 C         144.1697  141.7011  158.1728 C.3     1  UNL1        0.2542
     37 C         139.5470  142.7342  161.3208 C.3     1  UNL1        0.0491
     38 C         138.5998  143.7070  161.9584 C.3     1  UNL1        0.0750
     39 N         139.1330  144.8562  162.7615 N.3     1  UNL1       -0.2702
     40 C         139.8125  146.0019  162.0717 C.3     1  UNL1        0.0897
     41 C         138.9868  144.8598  164.2543 C.3     1  UNL1        0.0897
@<TRIPOS>BOND
     1    33    34    1
     2    34    27    1
     3    27    28   ar
     4    28    29   ar
     5    29    24    1
     6    24    25    1
     7    24    37    1
     8    37    38    1
     9    38    39    1
    10    39    40    1
    11    39    41    1
    12    24     1    1
    13     1     2    1
    14     2     3   ar
    15     3     4   ar
    16     4     5   ar
    17     5     6   ar
    18     6     7    1
    19     6     8   ar
    20     8     9   ar
    21     9    10   ar
    22    10    11   ar
    23    11    12   ar
    24    12    13    1
    25    13    14    1
    26     1    15    1
    27    15    16   ar
    28    16    17   ar
    29    17    18   ar
    30    18    19   ar
    31    19    22    1
    32    22    23    1
    33    19    20   ar
    34    20    21    1
    35    29    30   ar
    36    30    31   ar
    37    31    35    1
    38    35    36    1
    39    31    32   ar
    40    32    27   ar
    41    12     2   ar
    42    20    15   ar
    43    10     4   ar
    44    25    26    1
@<TRIPOS>MOLECULE
*****
 41 44 0 0 0
SMALL
GASTEIGER

@<TRIPOS>ATOM
      1 C         140.2603  140.0999  163.1494 C.3     1  UNL1        0.0799
      2 C         140.1434  140.1163  164.6448 C.ar    1  UNL1        0.0374
      3 C         140.3447  141.3973  165.3988 C.ar    1  UNL1        0.0023
      4 C         140.2279  141.4138  166.8941 C.ar    1  UNL1        0.0181
      5 C         140.4292  142.6948  167.6481 C.ar    1  UNL1        0.0082
      6 C         140.3123  142.7112  169.1435 C.ar    1  UNL1        0.0347
      7 BR        140.5137  143.9922  169.8974 Br      1  UNL1       -0.0490
      8 C         139.9941  141.4467  169.8848 C.ar    1  UNL1        0.0082
      9 C         139.7928  140.1657  169.1308 C.ar    1  UNL1        0.0197
     10 C         139.9096  140.1492  167.6355 C.ar    1  UNL1        0.0844
     11 N         139.7083  138.8682  166.8815 N.ar    1  UNL1       -0.2119
     12 C         139.8252  138.8518  165.3861 C.ar    1  UNL1        0.2211
     13 O         139.6238  137.5707  164.6321 O.3     1  UNL1       -0.4563
     14 C         140.7840  136.6501  164.3945 C.3     1  UNL1        0.2542
     15 C         141.5785  139.7918  162.5035 C.ar    1  UNL1        0.0148
     16 C         141.7319  138.5592  161.6627 C.ar    1  UNL1       -0.0014
     17 C         143.0502  138.2511  161.0167 C.ar    1  UNL1        0.0029
     18 C         144.2151  139.1757  161.2116 C.ar    1  UNL1        0.0392
     19 C         144.0617  140.4084  162.0525 C.ar    1  UNL1        0.1657
     20 C         142.7435  140.7165  162.6984 C.ar    1  UNL1        0.1702
     21 F         142.5901  141.9491  163.5391 F       1  UNL1       -0.2013
     22 O         145.2267  141.3331  162.2473 O.3     1  UNL1       -0.4692
     23 C         145.7977  141.5413  163.6187 C.3     1  UNL1        0.2526
     24 C         139.0588  140.3915  162.3000 C.3     1  UNL1        0.1162
     25 O         138.5904  138.9776  162.4772 O.3     1  UNL1       -0.3820
     26 H         137.7569  138.8506  161.9975 H       1  UNL1        0.2107
     27 C         139.5829  144.2749  162.9279 C.ar    1  UNL1        0.2272
     28 C         139.1144  142.8610  163.1052 C.ar    1  UNL1        0.0559
     29 C         139.5273  141.8054  162.1227 C.ar    1  UNL1        0.0117
     30 C         140.4087  142.1637  160.9631 C.ar    1  UNL1        0.0559
     31 C         140.8772  143.5776  160.7859 C.ar    1  UNL1        0.2272
     32 N         140.4643  144.6332  161.7683 N.ar    1  UNL1       -0.1767
     33 C         138.7005  144.9380  165.2799 C.3     1  UNL1        0.2542
     34 O         139.1700  145.3305  163.9104 O.3     1  UNL1       -0.4561
     35 O         141.7586  143.9359  159.6262 O.3     1  UNL1       -0.4561
     36 C         143.0586  143.2160  159.4218 C.3     1  UNL1        0.2542
     37 C         137.8574  140.6831  161.4505 C.3     1  UNL1        0.0491
     38 C         137.5075  139.7749  160.3092 C.3     1  UNL1        0.0750
     39 N         138.2615  139.8710  159.0160 N.3     1  UNL1       -0.2702
     40 C         139.4707  139.0135  158.7873 C.3     1  UNL1        0.0897
     41 C         137.8061  140.8246  157.9514 C.3     1  UNL1        0.0897
@<TRIPOS>BOND
     1    33    34    1
     2    34    27    1
     3    27    28   ar
     4    28    29   ar
     5    29    24    1
     6    24    25    1
     7    24    37    1
     8    37    38    1
     9    38    39    1
    10    39    40    1
    11    39    41    1
    12    24     1    1
    13     1     2    1
    14     2     3   ar
    15     3     4   ar
    16     4     5   ar
    17     5     6   ar
    18     6     7    1
    19     6     8   ar
    20     8     9   ar
    21     9    10   ar
    22    10    11   ar
    23    11    12   ar
    24    12    13    1
    25    13    14    1
    26     1    15    1
    27    15    16   ar
    28    16    17   ar
    29    17    18   ar
    30    18    19   ar
    31    19    22    1
    32    22    23    1
    33    19    20   ar
    34    20    21    1
    35    29    30   ar
    36    30    31   ar
    37    31    35    1
    38    35    36    1
    39    31    32   ar
    40    32    27   ar
    41    12     2   ar
    42    20    15   ar
    43    10     4   ar
    44    25    26    1
@<TRIPOS>MOLECULE
*****
 41 44 0 0 0
SMALL
GASTEIGER

@<TRIPOS>ATOM
      1 C         141.2852  140.9022  162.6184 C.3     1  UNL1        0.0799
      2 C         141.3405  140.6551  164.0969 C.ar    1  UNL1        0.0374
      3 C         140.9958  141.7567  165.0548 C.ar    1  UNL1        0.0023
      4 C         141.0512  141.5097  166.5333 C.ar    1  UNL1        0.0181
      5 C         140.7065  142.6113  167.4912 C.ar    1  UNL1        0.0082
      6 C         140.7618  142.3642  168.9697 C.ar    1  UNL1        0.0347
      7 BR        140.4171  143.4658  169.9276 Br      1  UNL1       -0.0490
      8 C         141.1619  141.0155  169.4903 C.ar    1  UNL1        0.0082
      9 C         141.5065  139.9139  168.5323 C.ar    1  UNL1        0.0197
     10 C         141.4512  140.1609  167.0539 C.ar    1  UNL1        0.0844
     11 N         141.7959  139.0593  166.0960 N.ar    1  UNL1       -0.2119
     12 C         141.7405  139.3064  164.6175 C.ar    1  UNL1        0.2211
     13 O         142.0852  138.2048  163.6595 O.3     1  UNL1       -0.4563
     14 C         141.0701  137.1497  163.3332 C.3     1  UNL1        0.2542
     15 C         140.0978  140.4429  161.8252 C.ar    1  UNL1        0.0148
     16 C         138.7131  140.8205  162.2610 C.ar    1  UNL1       -0.0014
     17 C         137.5257  140.3612  161.4678 C.ar    1  UNL1        0.0029
     18 C         137.7231  139.5243  160.2387 C.ar    1  UNL1        0.0392
     19 C         139.1079  139.1467  159.8029 C.ar    1  UNL1        0.1657
     20 C         140.2952  139.6060  160.5961 C.ar    1  UNL1        0.1702
     21 F         141.6799  139.2283  160.1602 F       1  UNL1       -0.2013
     22 O         139.3052  138.3098  158.5738 O.3     1  UNL1       -0.4692
     23 C         139.7601  138.9498  157.2957 C.3     1  UNL1        0.2526
     24 C         142.4172  141.6086  161.9332 C.3     1  UNL1        0.1162
     25 O         143.3338  140.4716  162.2753 O.3     1  UNL1       -0.3820
     26 H         144.2215  140.6572  161.9313 H       1  UNL1        0.2107
     27 C         140.2945  144.2066  159.8132 C.ar    1  UNL1        0.2272
     28 C         141.2111  143.0696  160.1554 C.ar    1  UNL1        0.0559
     29 C         141.5006  142.7456  161.5910 C.ar    1  UNL1        0.0117
     30 C         140.8734  143.5585  162.6845 C.ar    1  UNL1        0.0559
     31 C         139.9568  144.6955  162.3423 C.ar    1  UNL1        0.2272
     32 N         139.6673  145.0195  160.9067 N.ar    1  UNL1       -0.1767
     33 C         139.5559  143.4490  157.4403 C.3     1  UNL1        0.2542
     34 O         140.0050  144.5307  158.3775 O.3     1  UNL1       -0.4561
     35 O         139.3296  145.5084  163.4359 O.3     1  UNL1       -0.4561
     36 C         138.9269  144.8508  164.7226 C.3     1  UNL1        0.2542
     37 C         143.5492  142.3150  161.2480 C.3     1  UNL1        0.0491
     38 C         144.4895  143.1717  162.0428 C.3     1  UNL1        0.0750
     39 N         144.8493  142.7869  163.4473 N.3     1  UNL1       -0.2702
     40 C         144.1943  143.4789  164.6057 C.3     1  UNL1        0.0897
     41 C         145.8642  141.7102  163.6933 C.3     1  UNL1        0.0897
@<TRIPOS>BOND
     1    33    34    1
     2    34    27    1
     3    27    28   ar
     4    28    29   ar
     5    29    24    1
     6    24    25    1
     7    24    37    1
     8    37    38    1
     9    38    39    1
    10    39    40    1
    11    39    41    1
    12    24     1    1
    13     1     2    1
    14     2     3   ar
    15     3     4   ar
    16     4     5   ar
    17     5     6   ar
    18     6     7    1
    19     6     8   ar
    20     8     9   ar
    21     9    10   ar
    22    10    11   ar
    23    11    12   ar
    24    12    13    1
    25    13    14    1
    26     1    15    1
    27    15    16   ar
    28    16    17   ar
    29    17    18   ar
    30    18    19   ar
    31    19    22    1
    32    22    23    1
    33    19    20   ar
    34    20    21    1
    35    29    30   ar
    36    30    31   ar
    37    31    35    1
    38    35    36    1
    39    31    32   ar
    40    32    27   ar
    41    12     2   ar
    42    20    15   ar
    43    10     4   ar
    44    25    26    1
@<TRIPOS>MOLECULE
*****
 41 44 0 0 0
SMALL
GASTEIGER

@<TRIPOS>ATOM
      1 C         141.5902  141.5081  163.6219 C.3     1  UNL1        0.0799
      2 C         142.0714  141.7645  165.0193 C.ar    1  UNL1        0.0374
      3 C         141.3457  141.1608  166.1850 C.ar    1  UNL1        0.0023
      4 C         141.8269  141.4171  167.5824 C.ar    1  UNL1        0.0181
      5 C         141.1011  140.8134  168.7481 C.ar    1  UNL1        0.0082
      6 C         141.5824  141.0698  170.1456 C.ar    1  UNL1        0.0347
      7 BR        140.8566  140.4661  171.3113 Br      1  UNL1       -0.0490
      8 C         142.7893  141.9297  170.3772 C.ar    1  UNL1        0.0082
      9 C         143.5151  142.5334  169.2115 C.ar    1  UNL1        0.0197
     10 C         143.0339  142.2771  167.8141 C.ar    1  UNL1        0.0844
     11 N         143.7596  142.8808  166.6484 N.ar    1  UNL1       -0.2119
     12 C         143.2784  142.6244  165.2510 C.ar    1  UNL1        0.2211
     13 O         144.0041  143.2281  164.0853 O.3     1  UNL1       -0.4563
     14 C         143.8683  144.6934  163.7945 C.3     1  UNL1        0.2542
     15 C         142.4379  140.7174  162.6699 C.ar    1  UNL1        0.0148
     16 C         142.9050  139.3426  163.0462 C.ar    1  UNL1       -0.0014
     17 C         143.7527  138.5518  162.0943 C.ar    1  UNL1        0.0029
     18 C         144.1332  139.1359  160.7661 C.ar    1  UNL1        0.0392
     19 C         143.6660  140.5108  160.3898 C.ar    1  UNL1        0.1657
     20 C         142.8183  141.3015  161.3418 C.ar    1  UNL1        0.1702
     21 F         142.3512  142.6763  160.9655 F       1  UNL1       -0.2013
     22 O         144.0465  141.0949  159.0616 O.3     1  UNL1       -0.4692
     23 C         144.7433  142.4217  158.9977 C.3     1  UNL1        0.2526
     24 C         140.2613  142.0425  163.1764 C.3     1  UNL1        0.1162
     25 O         140.7774  143.4438  163.3177 O.3     1  UNL1       -0.3820
     26 H         140.0785  144.0717  163.0766 H       1  UNL1        0.2107
     27 C         138.8372  138.4585  164.1128 C.ar    1  UNL1        0.2272
     28 C         139.3534  139.8598  164.2541 C.ar    1  UNL1        0.0559
     29 C         139.7451  140.6412  163.0351 C.ar    1  UNL1        0.0117
     30 C         139.6208  140.0213  161.6749 C.ar    1  UNL1        0.0559
     31 C         139.1046  138.6200  161.5336 C.ar    1  UNL1        0.2272
     32 N         138.7128  137.8386  162.7526 N.ar    1  UNL1       -0.1767
     33 C         137.9343  138.3909  166.5480 C.3     1  UNL1        0.2542
     34 O         138.4454  137.6771  165.3318 O.3     1  UNL1       -0.4561
     35 O         138.9803  138.0002  160.1733 O.3     1  UNL1       -0.4561
     36 C         139.8080  138.5181  159.0346 C.3     1  UNL1        0.2542
     37 C         138.9324  142.5769  162.7310 C.3     1  UNL1        0.0491
     38 C         138.8456  143.9279  162.0851 C.3     1  UNL1        0.0750
     39 N         139.4679  144.1574  160.7398 N.3     1  UNL1       -0.2702
     40 C         140.2548  145.4079  160.4809 C.3     1  UNL1        0.0897
     41 C         139.3033  143.1365  159.6533 C.3     1  UNL1        0.0897
@<TRIPOS>BOND
     1    33    34    1
     2    34    27    1
     3    27    28   ar
     4    28    29   ar
     5    29    24    1
     6    24    25    1
     7    24    37    1
     8    37    38    1
     9    38    39    1
    10    39    40    1
    11    39    41    1
    12    24     1    1
    13     1     2    1
    14     2     3   ar
    15     3     4   ar
    16     4     5   ar
    17     5     6   ar
    18     6     7    1
    19     6     8   ar
    20     8     9   ar
    21     9    10   ar
    22    10    11   ar
    23    11    12   ar
    24    12    13    1
    25    13    14    1
    26     1    15    1
    27    15    16   ar
    28    16    17   ar
    29    17    18   ar
    30    18    19   ar
    31    19    22    1
    32    22    23    1
    33    19    20   ar
    34    20    21    1
    35    29    30   ar
    36    30    31   ar
    37    31    35    1
    38    35    36    1
    39    31    32   ar
    40    32    27   ar
    41    12     2   ar
    42    20    15   ar
    43    10     4   ar
    44    25    26    1
@<TRIPOS>MOLECULE
*****
 41 44 0 0 0
SMALL
GASTEIGER

@<TRIPOS>ATOM
      1 C         141.6008  141.5108  163.6838 C.3     1  UNL1        0.0799
      2 C         142.0949  141.7769  165.0749 C.ar    1  UNL1        0.0374
      3 C         141.3455  141.2313  166.2542 C.ar    1  UNL1        0.0023
      4 C         141.8396  141.4974  167.6453 C.ar    1  UNL1        0.0181
      5 C         141.0902  140.9518  168.8246 C.ar    1  UNL1        0.0082
      6 C         141.5843  141.2179  170.2157 C.ar    1  UNL1        0.0347
      7 BR        140.8349  140.6723  171.3949 Br      1  UNL1       -0.0490
      8 C         142.8278  142.0295  170.4274 C.ar    1  UNL1        0.0082
      9 C         143.5773  142.5751  169.2481 C.ar    1  UNL1        0.0197
     10 C         143.0832  142.3090  167.8571 C.ar    1  UNL1        0.0844
     11 N         143.8326  142.8546  166.6778 N.ar    1  UNL1       -0.2119
     12 C         143.3385  142.5885  165.2867 C.ar    1  UNL1        0.2211
     13 O         144.0879  143.1341  164.1074 O.3     1  UNL1       -0.4563
     14 C         143.9130  144.5688  163.7061 C.3     1  UNL1        0.2542
     15 C         142.4520  140.7378  162.7206 C.ar    1  UNL1        0.0148
     16 C         142.9559  139.3747  163.0919 C.ar    1  UNL1       -0.0014
     17 C         143.8072  138.6017  162.1287 C.ar    1  UNL1        0.0029
     18 C         144.1545  139.1918  160.7941 C.ar    1  UNL1        0.0392
     19 C         143.6505  140.5550  160.4227 C.ar    1  UNL1        0.1657
     20 C         142.7993  141.3280  161.3860 C.ar    1  UNL1        0.1702
     21 F         142.2953  142.6911  161.0146 F       1  UNL1       -0.2013
     22 O         143.9977  141.1451  159.0881 O.3     1  UNL1       -0.4692
     23 C         144.7734  142.4269  159.0138 C.3     1  UNL1        0.2526
     24 C         140.2554  142.0177  163.2561 C.3     1  UNL1        0.1162
     25 O         140.7450  143.4293  163.3891 O.3     1  UNL1       -0.3820
     26 H         140.0303  144.0427  163.1569 H       1  UNL1        0.2107
     27 C         139.1644  138.5641  161.6337 C.ar    1  UNL1        0.2272
     28 C         139.6540  139.9757  161.7666 C.ar    1  UNL1        0.0559
     29 C         139.7658  140.6061  163.1231 C.ar    1  UNL1        0.0117
     30 C         139.3880  139.8249  164.3466 C.ar    1  UNL1        0.0559
     31 C         138.8985  138.4133  164.2136 C.ar    1  UNL1        0.2272
     32 N         138.7866  137.7829  162.8572 N.ar    1  UNL1       -0.1767
     33 C         139.7246  138.5701  159.0967 C.3     1  UNL1        0.2542
     34 O         139.0525  137.9337  160.2771 O.3     1  UNL1       -0.4561
     35 O         138.5207  137.6321  165.4372 O.3     1  UNL1       -0.4561
     36 C         137.8653  138.3236  166.5958 C.3     1  UNL1        0.2542
     37 C         138.9100  142.5247  162.8283 C.3     1  UNL1        0.0491
     38 C         138.7923  143.8546  162.1448 C.3     1  UNL1        0.0750
     39 N         139.3815  144.0509  160.7794 N.3     1  UNL1       -0.2702
     40 C         140.1902  145.2784  160.4809 C.3     1  UNL1        0.0897
     41 C         139.1620  143.0197  159.7125 C.3     1  UNL1        0.0897
@<TRIPOS>BOND
     1    33    34    1
     2    34    27    1
     3    27    28   ar
     4    28    29   ar
     5    29    24    1
     6    24    25    1
     7    24    37    1
     8    37    38    1
     9    38    39    1
    10    39    40    1
    11    39    41    1
    12    24     1    1
    13     1     2    1
    14     2     3   ar
    15     3     4   ar
    16     4     5   ar
    17     5     6   ar
    18     6     7    1
    19     6     8   ar
    20     8     9   ar
    21     9    10   ar
    22    10    11   ar
    23    11    12   ar
    24    12    13    1
    25    13    14    1
    26     1    15    1
    27    15    16   ar
    28    16    17   ar
    29    17    18   ar
    30    18    19   ar
    31    19    22    1
    32    22    23    1
    33    19    20   ar
    34    20    21    1
    35    29    30   ar
    36    30    31   ar
    37    31    35    1
    38    35    36    1
    39    31    32   ar
    40    32    27   ar
    41    12     2   ar
    42    20    15   ar
    43    10     4   ar
    44    25    26    1
