@<TRIPOS>MOLECULE
*****
 32 35 0 0 0
SMALL
GASTEIGER

@<TRIPOS>ATOM
      1 C         141.9651  141.2224  164.4950 C.ar    1  UNL1        0.1430
      2 C         141.6522  140.8819  163.0680 C.ar    1  UNL1        0.0680
      3 C         141.5450  141.9718  162.0430 C.ar    1  UNL1        0.1641
      4 F         141.2320  141.6314  160.6161 F       1  UNL1       -0.2026
      5 C         141.7507  143.4023  162.4450 C.ar    1  UNL1        0.1799
      6 C         142.0637  143.7428  163.8719 C.ar    1  UNL1        0.1641
      7 F         142.2694  145.1732  164.2739 F       1  UNL1       -0.2026
      8 C         142.1709  142.6528  164.8969 C.ar    1  UNL1        0.0680
      9 S         141.6435  144.4922  161.4200 S.O2    1  UNL1        0.0790
     10 O         140.2672  144.8234  161.9162 O.2     1  UNL1       -0.1498
     11 O         143.0198  144.1610  160.9239 O.2     1  UNL1       -0.1498
     12 N         141.5363  145.5821  160.3951 N.pl3   1  UNL1       -0.1987
     13 H         141.5851  146.5254  160.6726 H       1  UNL1        0.1753
     14 C         141.3548  145.2348  158.9471 C.ar    1  UNL1        0.1503
     15 C         140.3044  144.2447  158.5393 C.ar    1  UNL1        0.0563
     16 C         140.1229  143.8974  157.0915 C.ar    1  UNL1        0.1036
     17 N         140.9918  144.5402  156.0514 N.ar    1  UNL1       -0.2223
     18 C         142.0421  145.5303  156.4591 C.ar    1  UNL1        0.2001
     19 N         142.2236  145.8776  157.9070 N.ar    1  UNL1       -0.2077
     20 O         142.0724  140.1325  165.5199 O.3     1  UNL1       -0.4786
     21 C         139.7395  139.6075  166.5360 C.3     1  UNL1        0.0799
     22 C         138.8090  139.5901  167.7123 C.3     1  UNL1        0.0095
     23 C         139.2809  140.0804  169.0491 C.3     1  UNL1        0.0006
     24 C         140.6832  140.5880  169.2095 C.3     1  UNL1        0.0037
     25 C         141.6137  140.6054  168.0331 C.3     1  UNL1        0.0439
     26 C         141.1419  140.1151  166.6964 C.3     1  UNL1        0.1713
     27 C         138.0749  141.3471  164.3331 C.3     1  UNL1        0.1533
     28 N         138.5025  139.9168  164.1866 N.ar    1  UNL1       -0.2527
     29 N         138.2401  139.0350  163.0019 N.ar    1  UNL1       -0.1679
     30 C         138.8431  137.6904  163.2822 C.ar    1  UNL1        0.1213
     31 C         139.4781  137.7412  164.6402 C.ar    1  UNL1        0.0369
     32 C         139.2677  139.1172  165.1991 C.ar    1  UNL1        0.0603
@<TRIPOS>BOND
     1    27    28    1
     2    28    29   ar
     3    29    30   ar
     4    30    31   ar
     5    31    32   ar
     6    21    32    1
     7    21    22    1
     8    22    23    1
     9    23    24    1
    10    24    25    1
    11    25    26    1
    12    26    20    1
    13    20     1    1
    14     1     2   ar
    15     2     3   ar
    16     3     4    1
    17     3     5   ar
    18     5     9    1
    19     9    10    2
    20     9    11    2
    21     9    12    1
    22    12    14    1
    23    14    15   ar
    24    15    16   ar
    25    16    17   ar
    26    17    18   ar
    27    18    19   ar
    28     5     6   ar
    29     6     7    1
    30     6     8   ar
    31    32    28   ar
    32    26    21    1
    33     8     1   ar
    34    19    14   ar
    35    12    13    1
@<TRIPOS>MOLECULE
*****
 32 35 0 0 0
SMALL
GASTEIGER

@<TRIPOS>ATOM
      1 C         141.9617  141.2406  164.5087 C.ar    1  UNL1        0.1430
      2 C         142.0712  142.6790  164.9201 C.ar    1  UNL1        0.0680
      3 C         141.9563  143.7642  163.8910 C.ar    1  UNL1        0.1641
      4 F         142.0657  145.2025  164.3023 F       1  UNL1       -0.2026
      5 C         141.7320  143.4111  162.4505 C.ar    1  UNL1        0.1799
      6 C         141.6225  141.9728  162.0391 C.ar    1  UNL1        0.1641
      7 F         141.3982  141.6196  160.5986 F       1  UNL1       -0.2026
      8 C         141.7374  140.8876  163.0683 C.ar    1  UNL1        0.0680
      9 S         141.6171  144.4963  161.4213 S.O2    1  UNL1        0.0790
     10 O         143.0235  144.2236  160.9768 O.2     1  UNL1       -0.1498
     11 O         140.2107  144.7690  161.8659 O.2     1  UNL1       -0.1498
     12 N         141.5022  145.5815  160.3922 N.pl3   1  UNL1       -0.1987
     13 H         141.5281  146.5263  160.6681 H       1  UNL1        0.1753
     14 C         141.3479  145.2273  158.9428 C.ar    1  UNL1        0.1503
     15 C         140.3158  144.2236  158.5218 C.ar    1  UNL1        0.0563
     16 C         140.1615  143.8695  157.0724 C.ar    1  UNL1        0.1036
     17 N         141.0393  144.5191  156.0440 N.ar    1  UNL1       -0.2223
     18 C         142.0714  145.5228  156.4651 C.ar    1  UNL1        0.2001
     19 N         142.2257  145.8769  157.9144 N.ar    1  UNL1       -0.2077
     20 O         142.0766  140.1554  165.5378 O.3     1  UNL1       -0.4786
     21 C         139.7451  139.6258  166.5546 C.3     1  UNL1        0.0799
     22 C         138.8150  139.6066  167.7312 C.3     1  UNL1        0.0095
     23 C         139.2863  140.0978  169.0678 C.3     1  UNL1        0.0006
     24 C         140.6877  140.6081  169.2278 C.3     1  UNL1        0.0037
     25 C         141.6178  140.6274  168.0512 C.3     1  UNL1        0.0439
     26 C         141.1465  140.1362  166.7146 C.3     1  UNL1        0.1713
     27 C         138.1253  141.3787  164.3289 C.3     1  UNL1        0.1533
     28 N         138.5293  139.9403  164.1949 N.ar    1  UNL1       -0.2527
     29 N         138.2596  139.0552  163.0143 N.ar    1  UNL1       -0.1679
     30 C         138.8375  137.7024  163.3077 C.ar    1  UNL1        0.1213
     31 C         139.4643  137.7515  164.6696 C.ar    1  UNL1        0.0369
     32 C         139.2738  139.1346  165.2179 C.ar    1  UNL1        0.0603
@<TRIPOS>BOND
     1    27    28    1
     2    28    29   ar
     3    29    30   ar
     4    30    31   ar
     5    31    32   ar
     6    21    32    1
     7    21    22    1
     8    22    23    1
     9    23    24    1
    10    24    25    1
    11    25    26    1
    12    26    20    1
    13    20     1    1
    14     1     2   ar
    15     2     3   ar
    16     3     4    1
    17     3     5   ar
    18     5     9    1
    19     9    10    2
    20     9    11    2
    21     9    12    1
    22    12    14    1
    23    14    15   ar
    24    15    16   ar
    25    16    17   ar
    26    17    18   ar
    27    18    19   ar
    28     5     6   ar
    29     6     7    1
    30     6     8   ar
    31    32    28   ar
    32    26    21    1
    33     8     1   ar
    34    19    14   ar
    35    12    13    1
@<TRIPOS>MOLECULE
*****
 32 35 0 0 0
SMALL
GASTEIGER

@<TRIPOS>ATOM
      1 C         139.8923  141.0976  165.0699 C.ar    1  UNL1        0.1430
      2 C         139.5938  142.5095  165.4791 C.ar    1  UNL1        0.0680
      3 C         139.8025  143.6323  164.5066 C.ar    1  UNL1        0.1641
      4 F         139.5039  145.0442  164.9157 F       1  UNL1       -0.2026
      5 C         140.3097  143.3431  163.1248 C.ar    1  UNL1        0.1799
      6 C         140.6082  141.9312  162.7157 C.ar    1  UNL1        0.1641
      7 F         141.1155  141.6420  161.3339 F       1  UNL1       -0.2026
      8 C         140.3995  140.8084  163.6882 C.ar    1  UNL1        0.0680
      9 S         140.5184  144.4658  162.1522 S.O2    1  UNL1        0.0790
     10 O         141.8560  144.7509  162.7684 O.2     1  UNL1       -0.1498
     11 O         139.1808  144.1808  161.5361 O.2     1  UNL1       -0.1498
     12 N         140.7271  145.5886  161.1797 N.pl3   1  UNL1       -0.1987
     13 H         140.6115  146.5214  161.4725 H       1  UNL1        0.1753
     14 C         141.1119  145.2901  159.7609 C.ar    1  UNL1        0.1503
     15 C         140.3112  145.8642  158.6299 C.ar    1  UNL1        0.0563
     16 C         140.6960  145.5657  157.2113 C.ar    1  UNL1        0.1036
     17 N         141.8816  144.6930  156.9235 N.ar    1  UNL1       -0.2223
     18 C         142.6824  144.1189  158.0545 C.ar    1  UNL1        0.2001
     19 N         142.2975  144.4174  159.4732 N.ar    1  UNL1       -0.2077
     20 O         139.6836  139.9748  166.0425 O.3     1  UNL1       -0.4786
     21 C         141.7755  140.0006  167.5831 C.3     1  UNL1        0.0799
     22 C         142.3778  140.0750  168.9548 C.3     1  UNL1        0.0095
     23 C         141.4903  140.1980  170.1578 C.3     1  UNL1        0.0006
     24 C         140.0006  140.2466  169.9891 C.3     1  UNL1        0.0037
     25 C         139.3984  140.1722  168.6173 C.3     1  UNL1        0.0439
     26 C         140.2859  140.0492  167.4143 C.3     1  UNL1        0.1713
     27 C         143.3048  142.4537  166.0685 C.3     1  UNL1        0.1533
     28 N         143.3659  141.0051  165.6839 N.ar    1  UNL1       -0.2527
     29 N         144.1406  140.4298  164.5355 N.ar    1  UNL1       -0.1679
     30 C         143.9166  138.9467  164.5219 C.ar    1  UNL1        0.1213
     31 C         143.0034  138.6054  165.6618 C.ar    1  UNL1        0.0369
     32 C         142.6630  139.8776  166.3800 C.ar    1  UNL1        0.0603
@<TRIPOS>BOND
     1    27    28    1
     2    28    29   ar
     3    29    30   ar
     4    30    31   ar
     5    31    32   ar
     6    21    32    1
     7    21    22    1
     8    22    23    1
     9    23    24    1
    10    24    25    1
    11    25    26    1
    12    26    20    1
    13    20     1    1
    14     1     2   ar
    15     2     3   ar
    16     3     4    1
    17     3     5   ar
    18     5     9    1
    19     9    10    2
    20     9    11    2
    21     9    12    1
    22    12    14    1
    23    14    15   ar
    24    15    16   ar
    25    16    17   ar
    26    17    18   ar
    27    18    19   ar
    28     5     6   ar
    29     6     7    1
    30     6     8   ar
    31    32    28   ar
    32    26    21    1
    33     8     1   ar
    34    19    14   ar
    35    12    13    1
@<TRIPOS>MOLECULE
*****
 32 35 0 0 0
SMALL
GASTEIGER

@<TRIPOS>ATOM
      1 C         140.3687  142.5865  164.7971 C.ar    1  UNL1        0.1430
      2 C         140.9357  143.9746  164.8400 C.ar    1  UNL1        0.0680
      3 C         141.2109  144.7122  163.5631 C.ar    1  UNL1        0.1641
      4 F         141.7778  146.1002  163.6060 F       1  UNL1       -0.2026
      5 C         140.9190  144.0616  162.2434 C.ar    1  UNL1        0.1799
      6 C         140.3521  142.6736  162.2005 C.ar    1  UNL1        0.1641
      7 F         140.0602  142.0230  160.8808 F       1  UNL1       -0.2026
      8 C         140.0769  141.9360  163.4774 C.ar    1  UNL1        0.0680
      9 S         141.1942  144.7991  160.9665 S.O2    1  UNL1        0.0790
     10 O         142.6119  144.3099  160.9894 O.2     1  UNL1       -0.1498
     11 O         139.7764  145.2884  160.9436 O.2     1  UNL1       -0.1498
     12 N         141.4693  145.5367  159.6897 N.pl3   1  UNL1       -0.1987
     13 H         142.1047  146.2887  159.6827 H       1  UNL1        0.1753
     14 C         140.7764  145.1284  158.4235 C.ar    1  UNL1        0.1503
     15 C         140.6524  143.6757  158.0712 C.ar    1  UNL1        0.0563
     16 C         139.9594  143.2675  156.8051 C.ar    1  UNL1        0.1036
     17 N         139.3905  144.3120  155.8912 N.ar    1  UNL1       -0.2223
     18 C         139.5145  145.7648  156.2434 C.ar    1  UNL1        0.2001
     19 N         140.2074  146.1730  157.5095 N.ar    1  UNL1       -0.2077
     20 O         140.0936  141.8490  166.0739 O.3     1  UNL1       -0.4786
     21 C         142.2601  141.6262  167.4906 C.3     1  UNL1        0.0799
     22 C         143.0420  141.9521  168.7284 C.3     1  UNL1        0.0095
     23 C         142.4395  142.8270  169.7874 C.3     1  UNL1        0.0006
     24 C         141.0550  143.3758  169.6087 C.3     1  UNL1        0.0037
     25 C         140.2730  143.0498  168.3708 C.3     1  UNL1        0.0439
     26 C         140.8756  142.1750  167.3118 C.3     1  UNL1        0.1713
     27 C         144.2129  142.6131  165.0694 C.3     1  UNL1        0.1533
     28 N         143.7602  141.2049  165.3186 N.ar    1  UNL1       -0.2527
     29 N         144.1256  140.0032  164.4987 N.ar    1  UNL1       -0.1679
     30 C         143.4538  138.8068  165.1048 C.ar    1  UNL1        0.1213
     31 C         142.6732  139.2691  166.2993 C.ar    1  UNL1        0.0369
     32 C         142.8626  140.7513  166.4315 C.ar    1  UNL1        0.0603
@<TRIPOS>BOND
     1    27    28    1
     2    28    29   ar
     3    29    30   ar
     4    30    31   ar
     5    31    32   ar
     6    21    32    1
     7    21    22    1
     8    22    23    1
     9    23    24    1
    10    24    25    1
    11    25    26    1
    12    26    20    1
    13    20     1    1
    14     1     2   ar
    15     2     3   ar
    16     3     4    1
    17     3     5   ar
    18     5     9    1
    19     9    10    2
    20     9    11    2
    21     9    12    1
    22    12    14    1
    23    14    15   ar
    24    15    16   ar
    25    16    17   ar
    26    17    18   ar
    27    18    19   ar
    28     5     6   ar
    29     6     7    1
    30     6     8   ar
    31    32    28   ar
    32    26    21    1
    33     8     1   ar
    34    19    14   ar
    35    12    13    1
@<TRIPOS>MOLECULE
*****
 32 35 0 0 0
SMALL
GASTEIGER

@<TRIPOS>ATOM
      1 C         139.9042  142.6806  164.6569 C.ar    1  UNL1        0.1430
      2 C         139.5252  142.1309  163.3137 C.ar    1  UNL1        0.0680
      3 C         139.9271  142.8584  162.0650 C.ar    1  UNL1        0.1641
      4 F         139.5482  142.3087  160.7218 F       1  UNL1       -0.2026
      5 C         140.7080  144.1357  162.1596 C.ar    1  UNL1        0.1799
      6 C         141.0869  144.6854  163.5028 C.ar    1  UNL1        0.1641
      7 F         141.8678  145.9626  163.5974 F       1  UNL1       -0.2026
      8 C         140.6850  143.9578  164.7515 C.ar    1  UNL1        0.0680
      9 S         141.1099  144.8632  160.9109 S.O2    1  UNL1        0.0790
     10 O         142.4958  144.3017  161.0299 O.2     1  UNL1       -0.1498
     11 O         139.7241  145.4247  160.7920 O.2     1  UNL1       -0.1498
     12 N         141.5119  145.5907  159.6623 N.pl3   1  UNL1       -0.1987
     13 H         142.1786  146.3137  159.7068 H       1  UNL1        0.1753
     14 C         140.8978  145.2167  158.3457 C.ar    1  UNL1        0.1503
     15 C         140.9026  143.7859  157.8954 C.ar    1  UNL1        0.0563
     16 C         140.2886  143.4120  156.5790 C.ar    1  UNL1        0.1036
     17 N         139.6698  144.4688  155.7128 N.ar    1  UNL1       -0.2223
     18 C         139.6650  145.8996  156.1631 C.ar    1  UNL1        0.2001
     19 N         140.2790  146.2735  157.4796 N.ar    1  UNL1       -0.2077
     20 O         139.5022  141.9531  165.9056 O.3     1  UNL1       -0.4786
     21 C         141.0375  140.0332  166.7465 C.3     1  UNL1        0.0799
     22 C         142.0875  139.5288  167.6915 C.3     1  UNL1        0.0095
     23 C         142.6522  140.4400  168.7407 C.3     1  UNL1        0.0006
     24 C         142.1670  141.8555  168.8449 C.3     1  UNL1        0.0037
     25 C         141.1170  142.3599  167.8999 C.3     1  UNL1        0.0439
     26 C         140.5523  141.4487  166.8507 C.3     1  UNL1        0.1713
     27 C         138.0242  138.7806  166.7138 C.3     1  UNL1        0.1533
     28 N         139.0877  138.5463  165.6823 N.ar    1  UNL1       -0.2527
     29 N         138.9528  137.6952  164.4545 N.ar    1  UNL1       -0.1679
     30 C         140.2545  137.7448  163.7107 C.ar    1  UNL1        0.1213
     31 C         141.1938  138.6267  164.4788 C.ar    1  UNL1        0.0369
     32 C         140.4727  139.1221  165.6972 C.ar    1  UNL1        0.0603
@<TRIPOS>BOND
     1    27    28    1
     2    28    29   ar
     3    29    30   ar
     4    30    31   ar
     5    31    32   ar
     6    21    32    1
     7    21    22    1
     8    22    23    1
     9    23    24    1
    10    24    25    1
    11    25    26    1
    12    26    20    1
    13    20     1    1
    14     1     2   ar
    15     2     3   ar
    16     3     4    1
    17     3     5   ar
    18     5     9    1
    19     9    10    2
    20     9    11    2
    21     9    12    1
    22    12    14    1
    23    14    15   ar
    24    15    16   ar
    25    16    17   ar
    26    17    18   ar
    27    18    19   ar
    28     5     6   ar
    29     6     7    1
    30     6     8   ar
    31    32    28   ar
    32    26    21    1
    33     8     1   ar
    34    19    14   ar
    35    12    13    1
@<TRIPOS>MOLECULE
*****
 32 35 0 0 0
SMALL
GASTEIGER

@<TRIPOS>ATOM
      1 C         140.0939  141.2712  164.0611 C.ar    1  UNL1        0.1430
      2 C         140.3323  142.6678  164.5537 C.ar    1  UNL1        0.0680
      3 C         140.6795  143.7568  163.5823 C.ar    1  UNL1        0.1641
      4 F         140.9178  145.1534  164.0749 F       1  UNL1       -0.2026
      5 C         140.7883  143.4491  162.1182 C.ar    1  UNL1        0.1799
      6 C         140.5500  142.0525  161.6256 C.ar    1  UNL1        0.1641
      7 F         140.6589  141.7448  160.1615 F       1  UNL1       -0.2026
      8 C         140.2028  140.9635  162.5970 C.ar    1  UNL1        0.0680
      9 S         141.1355  144.5380  161.1468 S.O2    1  UNL1        0.0790
     10 O         142.5888  144.3706  161.4785 O.2     1  UNL1       -0.1498
     11 O         139.6823  144.7054  160.8151 O.2     1  UNL1       -0.1498
     12 N         141.4827  145.6269  160.1754 N.pl3   1  UNL1       -0.1987
     13 H         141.7761  146.5066  160.5061 H       1  UNL1        0.1753
     14 C         141.3829  145.3756  158.6999 C.ar    1  UNL1        0.1503
     15 C         142.3178  144.4063  158.0393 C.ar    1  UNL1        0.0563
     16 C         142.2180  144.1550  156.5639 C.ar    1  UNL1        0.1036
     17 N         141.1833  144.8730  155.7491 N.ar    1  UNL1       -0.2223
     18 C         140.2485  145.8424  156.4097 C.ar    1  UNL1        0.2001
     19 N         140.3483  146.0937  157.8851 N.ar    1  UNL1       -0.2077
     20 O         139.7467  140.1823  165.0325 O.3     1  UNL1       -0.4786
     21 C         141.9753  139.5239  166.1944 C.3     1  UNL1        0.0799
     22 C         142.7860  139.3471  167.4440 C.3     1  UNL1        0.0095
     23 C         142.1789  139.6519  168.7813 C.3     1  UNL1        0.0006
     24 C         140.7610  140.1334  168.8690 C.3     1  UNL1        0.0037
     25 C         139.9503  140.3102  167.6194 C.3     1  UNL1        0.0439
     26 C         140.5575  140.0055  166.2822 C.3     1  UNL1        0.1713
     27 C         141.1471  137.0532  164.2298 C.3     1  UNL1        0.1533
     28 N         142.2018  138.0835  163.9541 N.ar    1  UNL1       -0.2527
     29 N         143.0610  138.1590  162.7268 N.ar    1  UNL1       -0.1679
     30 C         143.9728  139.3414  162.8713 C.ar    1  UNL1        0.1213
     31 C         143.6770  139.9966  164.1879 C.ar    1  UNL1        0.0369
     32 C         142.5825  139.2191  164.8570 C.ar    1  UNL1        0.0603
@<TRIPOS>BOND
     1    27    28    1
     2    28    29   ar
     3    29    30   ar
     4    30    31   ar
     5    31    32   ar
     6    21    32    1
     7    21    22    1
     8    22    23    1
     9    23    24    1
    10    24    25    1
    11    25    26    1
    12    26    20    1
    13    20     1    1
    14     1     2   ar
    15     2     3   ar
    16     3     4    1
    17     3     5   ar
    18     5     9    1
    19     9    10    2
    20     9    11    2
    21     9    12    1
    22    12    14    1
    23    14    15   ar
    24    15    16   ar
    25    16    17   ar
    26    17    18   ar
    27    18    19   ar
    28     5     6   ar
    29     6     7    1
    30     6     8   ar
    31    32    28   ar
    32    26    21    1
    33     8     1   ar
    34    19    14   ar
    35    12    13    1
@<TRIPOS>MOLECULE
*****
 32 35 0 0 0
SMALL
GASTEIGER

@<TRIPOS>ATOM
      1 C         143.1353  141.2023  165.6872 C.ar    1  UNL1        0.1430
      2 C         142.8178  140.2992  164.5323 C.ar    1  UNL1        0.0680
      3 C         142.9980  140.7886  163.1259 C.ar    1  UNL1        0.1641
      4 F         142.6805  139.8855  161.9711 F       1  UNL1       -0.2026
      5 C         143.4959  142.1811  162.8743 C.ar    1  UNL1        0.1799
      6 C         143.8134  143.0841  164.0291 C.ar    1  UNL1        0.1641
      7 F         144.3112  144.4766  163.7776 F       1  UNL1       -0.2026
      8 C         143.6331  142.5947  165.4356 C.ar    1  UNL1        0.0680
      9 S         143.6761  142.6705  161.4679 S.O2    1  UNL1        0.0790
     10 O         145.1189  142.2622  161.5108 O.2     1  UNL1       -0.1498
     11 O         142.2334  143.0787  161.4250 O.2     1  UNL1       -0.1498
     12 N         143.8564  143.1598  160.0615 N.pl3   1  UNL1       -0.1987
     13 H         143.7744  144.1200  159.8601 H       1  UNL1        0.1753
     14 C         144.1616  142.1862  158.9619 C.ar    1  UNL1        0.1503
     15 C         145.2493  142.4874  157.9740 C.ar    1  UNL1        0.0563
     16 C         145.5545  141.5138  156.8745 C.ar    1  UNL1        0.1036
     17 N         144.7719  140.2390  156.7630 N.ar    1  UNL1       -0.2223
     18 C         143.6842  139.9378  157.7509 C.ar    1  UNL1        0.2001
     19 N         143.3791  140.9114  158.8504 N.ar    1  UNL1       -0.2077
     20 O         142.9551  140.7130  167.0936 O.3     1  UNL1       -0.4786
     21 C         140.9023  141.9277  168.1234 C.3     1  UNL1        0.0799
     22 C         140.3177  142.8358  169.1643 C.3     1  UNL1        0.0095
     23 C         141.2015  143.4374  170.2164 C.3     1  UNL1        0.0006
     24 C         142.6698  143.1309  170.2276 C.3     1  UNL1        0.0037
     25 C         143.2543  142.2228  169.1867 C.3     1  UNL1        0.0439
     26 C         142.3706  141.6212  168.1346 C.3     1  UNL1        0.1713
     27 C         139.9879  143.3602  165.3374 C.3     1  UNL1        0.1533
     28 N         139.5982  141.9845  165.7907 N.ar    1  UNL1       -0.2527
     29 N         138.7198  141.0257  165.0430 N.ar    1  UNL1       -0.1679
     30 C         138.5972  139.7745  165.8615 C.ar    1  UNL1        0.1213
     31 C         139.3998  139.9602  167.1150 C.ar    1  UNL1        0.0369
     32 C         140.0185  141.3260  167.0713 C.ar    1  UNL1        0.0603
@<TRIPOS>BOND
     1    27    28    1
     2    28    29   ar
     3    29    30   ar
     4    30    31   ar
     5    31    32   ar
     6    21    32    1
     7    21    22    1
     8    22    23    1
     9    23    24    1
    10    24    25    1
    11    25    26    1
    12    26    20    1
    13    20     1    1
    14     1     2   ar
    15     2     3   ar
    16     3     4    1
    17     3     5   ar
    18     5     9    1
    19     9    10    2
    20     9    11    2
    21     9    12    1
    22    12    14    1
    23    14    15   ar
    24    15    16   ar
    25    16    17   ar
    26    17    18   ar
    27    18    19   ar
    28     5     6   ar
    29     6     7    1
    30     6     8   ar
    31    32    28   ar
    32    26    21    1
    33     8     1   ar
    34    19    14   ar
    35    12    13    1
@<TRIPOS>MOLECULE
*****
 32 35 0 0 0
SMALL
GASTEIGER

@<TRIPOS>ATOM
      1 C         141.0634  142.1851  164.6418 C.ar    1  UNL1        0.1430
      2 C         140.1451  142.0136  163.4681 C.ar    1  UNL1        0.0680
      3 C         140.2513  142.9378  162.2914 C.ar    1  UNL1        0.1641
      4 F         139.3331  142.7663  161.1178 F       1  UNL1       -0.2026
      5 C         141.2758  144.0336  162.2885 C.ar    1  UNL1        0.1799
      6 C         142.1940  144.2051  163.4621 C.ar    1  UNL1        0.1641
      7 F         143.2184  145.3008  163.4591 F       1  UNL1       -0.2026
      8 C         142.0878  143.2808  164.6388 C.ar    1  UNL1        0.0680
      9 S         141.3820  144.9578  161.1118 S.O2    1  UNL1        0.0790
     10 O         140.1959  145.7289  161.6105 O.2     1  UNL1       -0.1498
     11 O         142.5680  144.1866  160.6131 O.2     1  UNL1       -0.1498
     12 N         141.4881  145.8820  159.9351 N.pl3   1  UNL1       -0.1987
     13 H         141.7127  146.8306  160.0729 H       1  UNL1        0.1753
     14 C         141.2522  145.3609  158.5484 C.ar    1  UNL1        0.1503
     15 C         140.0872  144.4564  158.2753 C.ar    1  UNL1        0.0563
     16 C         139.8513  143.9353  156.8886 C.ar    1  UNL1        0.1036
     17 N         140.7804  144.3187  155.7752 N.ar    1  UNL1       -0.2223
     18 C         141.9454  145.2232  156.0483 C.ar    1  UNL1        0.2001
     19 N         142.1813  145.7443  157.4350 N.ar    1  UNL1       -0.2077
     20 O         140.9572  141.2609  165.8185 O.3     1  UNL1       -0.4786
     21 C         140.8438  138.8072  164.9721 C.3     1  UNL1        0.0799
     22 C         140.1006  137.5107  164.8428 C.3     1  UNL1        0.0095
     23 C         138.7276  137.3714  165.4304 C.3     1  UNL1        0.0006
     24 C         138.0977  138.5287  166.1474 C.3     1  UNL1        0.0037
     25 C         138.8409  139.8252  166.2768 C.3     1  UNL1        0.0439
     26 C         140.2139  139.9644  165.6891 C.3     1  UNL1        0.1713
     27 C         143.6626  138.4081  166.5673 C.3     1  UNL1        0.1533
     28 N         143.5125  138.7630  165.1177 N.ar    1  UNL1       -0.2527
     29 N         144.6317  138.9968  164.1468 N.ar    1  UNL1       -0.1679
     30 C         144.0278  139.3248  162.8134 C.ar    1  UNL1        0.1213
     31 C         142.5354  139.2937  162.9603 C.ar    1  UNL1        0.0369
     32 C         142.2169  138.9465  164.3845 C.ar    1  UNL1        0.0603
@<TRIPOS>BOND
     1    27    28    1
     2    28    29   ar
     3    29    30   ar
     4    30    31   ar
     5    31    32   ar
     6    21    32    1
     7    21    22    1
     8    22    23    1
     9    23    24    1
    10    24    25    1
    11    25    26    1
    12    26    20    1
    13    20     1    1
    14     1     2   ar
    15     2     3   ar
    16     3     4    1
    17     3     5   ar
    18     5     9    1
    19     9    10    2
    20     9    11    2
    21     9    12    1
    22    12    14    1
    23    14    15   ar
    24    15    16   ar
    25    16    17   ar
    26    17    18   ar
    27    18    19   ar
    28     5     6   ar
    29     6     7    1
    30     6     8   ar
    31    32    28   ar
    32    26    21    1
    33     8     1   ar
    34    19    14   ar
    35    12    13    1
@<TRIPOS>MOLECULE
*****
 32 35 0 0 0
SMALL
GASTEIGER

@<TRIPOS>ATOM
      1 C         141.3776  141.0651  163.8237 C.ar    1  UNL1        0.1430
      2 C         141.4194  140.8110  162.3459 C.ar    1  UNL1        0.0680
      3 C         141.3284  141.9590  161.3847 C.ar    1  UNL1        0.1641
      4 F         141.3702  141.7050  159.9070 F       1  UNL1       -0.2026
      5 C         141.1957  143.3610  161.9013 C.ar    1  UNL1        0.1799
      6 C         141.1539  143.6150  163.3790 C.ar    1  UNL1        0.1641
      7 F         141.0212  145.0170  163.8956 F       1  UNL1       -0.2026
      8 C         141.2449  142.4670  164.3402 C.ar    1  UNL1        0.0680
      9 S         141.1047  144.5090  160.9401 S.O2    1  UNL1        0.0790
     10 O         139.6105  144.3776  160.9247 O.2     1  UNL1       -0.1498
     11 O         142.5989  144.6403  160.9556 O.2     1  UNL1       -0.1498
     12 N         141.0137  145.6569  159.9789 N.pl3   1  UNL1       -0.1987
     13 H         141.1025  146.5812  160.3062 H       1  UNL1        0.1753
     14 C         140.7874  145.3966  158.5191 C.ar    1  UNL1        0.1503
     15 C         141.3487  144.1602  157.8819 C.ar    1  UNL1        0.0563
     16 C         141.1224  143.9000  156.4221 C.ar    1  UNL1        0.1036
     17 N         140.3348  144.8762  155.5995 N.ar    1  UNL1       -0.2223
     18 C         139.7735  146.1126  156.2367 C.ar    1  UNL1        0.2001
     19 N         139.9998  146.3728  157.6965 N.ar    1  UNL1       -0.2077
     20 O         141.4686  139.9171  164.7849 O.3     1  UNL1       -0.4786
     21 C         139.0591  139.3251  165.5556 C.3     1  UNL1        0.0799
     22 C         138.0439  139.1813  166.6504 C.3     1  UNL1        0.0095
     23 C         138.4229  139.4860  168.0694 C.3     1  UNL1        0.0006
     24 C         139.8171  139.9343  168.3936 C.3     1  UNL1        0.0037
     25 C         140.8323  140.0781  167.2988 C.3     1  UNL1        0.0439
     26 C         140.4533  139.7734  165.8798 C.3     1  UNL1        0.1713
     27 C         137.6042  141.3765  163.4760 C.3     1  UNL1        0.1533
     28 N         138.0114  139.9633  163.1807 N.ar    1  UNL1       -0.2527
     29 N         137.8213  139.2450  161.8777 N.ar    1  UNL1       -0.1679
     30 C         138.3726  137.8581  162.0282 C.ar    1  UNL1        0.1213
     31 C         138.9034  137.7193  163.4243 C.ar    1  UNL1        0.0369
     32 C         138.6801  139.0204  164.1366 C.ar    1  UNL1        0.0603
@<TRIPOS>BOND
     1    27    28    1
     2    28    29   ar
     3    29    30   ar
     4    30    31   ar
     5    31    32   ar
     6    21    32    1
     7    21    22    1
     8    22    23    1
     9    23    24    1
    10    24    25    1
    11    25    26    1
    12    26    20    1
    13    20     1    1
    14     1     2   ar
    15     2     3   ar
    16     3     4    1
    17     3     5   ar
    18     5     9    1
    19     9    10    2
    20     9    11    2
    21     9    12    1
    22    12    14    1
    23    14    15   ar
    24    15    16   ar
    25    16    17   ar
    26    17    18   ar
    27    18    19   ar
    28     5     6   ar
    29     6     7    1
    30     6     8   ar
    31    32    28   ar
    32    26    21    1
    33     8     1   ar
    34    19    14   ar
    35    12    13    1
