@<TRIPOS>MOLECULE
*****
 41 45 0 0 0
SMALL
GASTEIGER

@<TRIPOS>ATOM
      1 C         141.2321  139.5215  159.9298 C.2     1  UNL1        0.2436
      2 O         140.5593  138.9345  158.7245 O.2     1  UNL1       -0.2731
      3 N         141.1380  140.9942  160.1985 N.am    1  UNL1       -0.2754
      4 C         141.8108  141.5813  161.4038 C.3     1  UNL1        0.1108
      5 C         141.7167  143.0540  161.6724 C.3     1  UNL1        0.0939
      6 N         140.9498  143.9398  160.7357 N.3     1  UNL1       -0.2697
      7 C         140.2770  143.3528  159.5304 C.3     1  UNL1        0.0939
      8 C         140.3711  141.8800  159.2618 C.3     1  UNL1        0.1108
      9 C         142.9504  137.6124  160.3210 C.3     1  UNL1        0.0312
     10 C         141.9989  138.6358  160.8665 C.3     1  UNL1        0.1491
     11 N         141.8144  138.7735  162.3487 N.am    1  UNL1       -0.2923
     12 C         142.9802  139.1391  163.2190 C.2     1  UNL1        0.2809
     13 O         144.3305  139.3671  162.6070 O.2     1  UNL1       -0.2668
     14 H         140.9281  138.6238  162.7504 H       1  UNL1        0.1502
     15 C         142.7956  139.2767  164.7012 C.ar    1  UNL1        0.1983
     16 C         143.4642  138.4434  165.7541 C.ar    1  UNL1        0.0453
     17 C         142.9919  138.9235  167.0944 C.ar    1  UNL1        0.0408
     18 C         142.0314  140.0536  166.8698 C.ar    1  UNL1        0.1455
     19 O         141.9101  140.2719  165.3908 O.2     1  UNL1       -0.4489
     20 C         141.3175  140.8292  167.9370 C.ar    1  UNL1        0.0346
     21 C         141.3348  142.3289  167.9128 C.ar    1  UNL1        0.0039
     22 C         140.6209  143.1045  168.9799 C.ar    1  UNL1        0.0115
     23 C         139.8898  142.3804  170.0713 C.ar    1  UNL1        0.0577
     24 CL        139.1759  143.1560  171.1385 Cl      1  UNL1       -0.0822
     25 C         139.8726  140.8807  170.0956 C.ar    1  UNL1        0.0115
     26 C         140.5864  140.1051  169.0284 C.ar    1  UNL1        0.0039
     27 C         140.8557  145.4125  161.0044 C.3     1  UNL1        0.0760
     28 C         139.5894  145.9943  161.5595 C.3     1  UNL1        0.0646
     29 C         138.8873  145.3142  162.6972 C.3     1  UNL1        0.2068
     30 O         137.9096  144.2102  162.4228 O.3     1  UNL1       -0.4754
     31 C         138.1291  142.8496  163.0149 C.ar    1  UNL1        0.1386
     32 C         138.4161  142.7068  164.4802 C.ar    1  UNL1        0.0370
     33 C         138.6356  141.3462  165.0724 C.ar    1  UNL1        0.0060
     34 C         138.5680  140.1285  164.1992 C.ar    1  UNL1        0.0349
     35 C         138.2809  140.2713  162.7338 C.ar    1  UNL1        0.0060
     36 C         138.0615  141.6319  162.1417 C.ar    1  UNL1        0.0370
     37 C         138.7874  138.7678  164.7913 C.2     1  UNL1        0.1726
     38 O         139.6578  137.7728  164.0824 O.2     1  UNL1       -0.2914
     39 C         138.1365  138.4023  166.0923 C.3     1  UNL1        0.0620
     40 C         137.3972  137.4113  166.9416 C.3     1  UNL1        0.0081
     41 C         137.7483  138.7600  167.4963 C.3     1  UNL1        0.0081
@<TRIPOS>BOND
     1    10     9    1
     2    10    11    1
     3    11    12   am
     4    12    13    2
     5    12    15    1
     6    15    16   ar
     7    16    17   ar
     8    17    18   ar
     9    18    20    1
    10    20    21   ar
    11    21    22   ar
    12    22    23   ar
    13    23    24    1
    14    23    25   ar
    15    25    26   ar
    16    18    19   ar
    17    10     1    1
    18     1     2    2
    19     1     3   am
    20     3     4    1
    21     4     5    1
    22     5     6    1
    23     6    27    1
    24    27    28    1
    25    28    29    1
    26    29    30    1
    27    30    31    1
    28    31    32   ar
    29    32    33   ar
    30    33    34   ar
    31    34    37    1
    32    37    38    2
    33    37    39    1
    34    39    40    1
    35    40    41    1
    36    34    35   ar
    37    35    36   ar
    38     6     7    1
    39     7     8    1
    40    19    15   ar
    41     8     3    1
    42    26    20   ar
    43    36    31   ar
    44    41    39    1
    45    11    14    1
@<TRIPOS>MOLECULE
*****
 41 45 0 0 0
SMALL
GASTEIGER

@<TRIPOS>ATOM
      1 C         143.8287  140.2318  164.5824 C.2     1  UNL1        0.2436
      2 O         143.8510  138.8418  164.0189 O.2     1  UNL1       -0.2731
      3 N         143.3729  140.4621  165.9928 N.am    1  UNL1       -0.2754
      4 C         143.3506  141.8521  166.5563 C.3     1  UNL1        0.1108
      5 C         142.8949  142.0824  167.9667 C.3     1  UNL1        0.0939
      6 N         142.4614  140.9227  168.8137 N.3     1  UNL1       -0.2697
      7 C         142.4837  139.5327  168.2502 C.3     1  UNL1        0.0939
      8 C         142.9395  139.3024  166.8397 C.3     1  UNL1        0.1108
      9 C         145.6774  141.8835  163.8052 C.3     1  UNL1        0.0312
     10 C         144.2621  141.3915  163.7355 C.3     1  UNL1        0.1491
     11 N         143.2803  142.0591  162.8189 N.am    1  UNL1       -0.2923
     12 C         142.9608  143.5143  162.9937 C.2     1  UNL1        0.2809
     13 O         143.6232  144.3018  164.0850 O.2     1  UNL1       -0.2668
     14 H         142.8455  141.5423  162.1026 H       1  UNL1        0.1502
     15 C         141.9789  144.1819  162.0771 C.ar    1  UNL1        0.1983
     16 C         141.0130  145.2647  162.4575 C.ar    1  UNL1        0.0453
     17 C         140.2277  145.6360  161.2347 C.ar    1  UNL1        0.0408
     18 C         140.7082  144.7828  160.0984 C.ar    1  UNL1        0.1455
     19 O         141.7905  143.8841  160.6191 O.2     1  UNL1       -0.4489
     20 C         140.1963  144.8214  158.6890 C.ar    1  UNL1        0.0346
     21 C         139.5470  143.6075  158.0933 C.ar    1  UNL1        0.0039
     22 C         139.0351  143.6462  156.6839 C.ar    1  UNL1        0.0115
     23 C         139.1726  144.8987  155.8701 C.ar    1  UNL1        0.0577
     24 CL        138.6607  144.9373  154.4607 Cl      1  UNL1       -0.0822
     25 C         139.8219  146.1126  156.4658 C.ar    1  UNL1        0.0115
     26 C         140.3338  146.0739  157.8752 C.ar    1  UNL1        0.0039
     27 C         142.0057  141.1530  170.2241 C.3     1  UNL1        0.0760
     28 C         140.6919  140.5973  170.6879 C.3     1  UNL1        0.0646
     29 C         139.4646  140.7690  169.8427 C.3     1  UNL1        0.2068
     30 O         139.0063  139.6537  168.9505 O.3     1  UNL1       -0.4754
     31 C         138.9946  139.8403  167.4622 C.ar    1  UNL1        0.1386
     32 C         139.5885  141.0776  166.8569 C.ar    1  UNL1        0.0370
     33 C         139.5768  141.2643  165.3686 C.ar    1  UNL1        0.0060
     34 C         138.9711  140.2137  164.4857 C.ar    1  UNL1        0.0349
     35 C         138.3773  138.9765  165.0911 C.ar    1  UNL1        0.0060
     36 C         138.3890  138.7898  166.5794 C.ar    1  UNL1        0.0370
     37 C         138.9594  140.4004  162.9973 C.2     1  UNL1        0.1726
     38 O         139.4580  139.3064  162.1003 O.2     1  UNL1       -0.2914
     39 C         138.4491  141.6811  162.4062 C.3     1  UNL1        0.0620
     40 C         138.0841  142.5029  161.2056 C.3     1  UNL1        0.0081
     41 C         137.9301  143.0773  162.5827 C.3     1  UNL1        0.0081
@<TRIPOS>BOND
     1    10     9    1
     2    10    11    1
     3    11    12   am
     4    12    13    2
     5    12    15    1
     6    15    16   ar
     7    16    17   ar
     8    17    18   ar
     9    18    20    1
    10    20    21   ar
    11    21    22   ar
    12    22    23   ar
    13    23    24    1
    14    23    25   ar
    15    25    26   ar
    16    18    19   ar
    17    10     1    1
    18     1     2    2
    19     1     3   am
    20     3     4    1
    21     4     5    1
    22     5     6    1
    23     6    27    1
    24    27    28    1
    25    28    29    1
    26    29    30    1
    27    30    31    1
    28    31    32   ar
    29    32    33   ar
    30    33    34   ar
    31    34    37    1
    32    37    38    2
    33    37    39    1
    34    39    40    1
    35    40    41    1
    36    34    35   ar
    37    35    36   ar
    38     6     7    1
    39     7     8    1
    40    19    15   ar
    41     8     3    1
    42    26    20   ar
    43    36    31   ar
    44    41    39    1
    45    11    14    1
@<TRIPOS>MOLECULE
*****
 41 45 0 0 0
SMALL
GASTEIGER

@<TRIPOS>ATOM
      1 C         140.2642  139.7154  158.3117 C.2     1  UNL1        0.2436
      2 O         139.3903  139.2739  157.1753 O.2     1  UNL1       -0.2731
      3 N         140.2827  141.1565  158.7275 N.am    1  UNL1       -0.2754
      4 C         141.1566  141.5980  159.8639 C.3     1  UNL1        0.1108
      5 C         141.1752  143.0391  160.2797 C.3     1  UNL1        0.0939
      6 N         140.3199  144.0388  159.5590 N.3     1  UNL1       -0.2697
      7 C         139.4461  143.5972  158.4225 C.3     1  UNL1        0.0939
      8 C         139.4275  142.1560  158.0068 C.3     1  UNL1        0.1108
      9 C         142.0095  137.7917  158.2555 C.3     1  UNL1        0.0312
     10 C         141.1194  138.7158  159.0325 C.3     1  UNL1        0.1491
     11 N         141.0846  138.6404  160.5301 N.am    1  UNL1       -0.2923
     12 C         142.3382  138.8676  161.3219 C.2     1  UNL1        0.2809
     13 O         143.6266  139.1701  160.6160 O.2     1  UNL1       -0.2668
     14 H         140.2389  138.4419  160.9935 H       1  UNL1        0.1502
     15 C         142.3033  138.7922  162.8196 C.ar    1  UNL1        0.1983
     16 C         141.9845  137.5734  163.6339 C.ar    1  UNL1        0.0453
     17 C         142.0653  137.9503  165.0835 C.ar    1  UNL1        0.0408
     18 C         142.4341  139.4020  165.1652 C.ar    1  UNL1        0.1455
     19 O         142.5812  139.9223  163.7660 O.2     1  UNL1       -0.4489
     20 C         142.6226  140.1943  166.4249 C.ar    1  UNL1        0.0346
     21 C         143.0133  141.6406  166.3498 C.ar    1  UNL1        0.0039
     22 C         143.2018  142.4328  167.6094 C.ar    1  UNL1        0.0115
     23 C         142.9997  141.7788  168.9441 C.ar    1  UNL1        0.0577
     24 CL        143.1883  142.5711  170.2038 Cl      1  UNL1       -0.0822
     25 C         142.6091  140.3325  169.0192 C.ar    1  UNL1        0.0115
     26 C         142.4205  139.5403  167.7596 C.ar    1  UNL1        0.0039
     27 C         140.3385  145.4799  159.9747 C.3     1  UNL1        0.0760
     28 C         140.5840  145.8435  161.4091 C.3     1  UNL1        0.0646
     29 C         139.4892  145.6820  162.4217 C.3     1  UNL1        0.2068
     30 O         138.3422  144.7559  162.1449 O.3     1  UNL1       -0.4754
     31 C         138.4153  143.3214  162.5772 C.ar    1  UNL1        0.1386
     32 C         137.6656  142.2693  161.8149 C.ar    1  UNL1        0.0370
     33 C         137.7387  140.8348  162.2472 C.ar    1  UNL1        0.0060
     34 C         138.5615  140.4524  163.4417 C.ar    1  UNL1        0.0349
     35 C         139.3112  141.5046  164.2039 C.ar    1  UNL1        0.0060
     36 C         139.2381  142.9390  163.7717 C.ar    1  UNL1        0.0370
     37 C         138.6346  139.0178  163.8740 C.2     1  UNL1        0.1726
     38 O         138.8923  137.9416  162.8614 O.2     1  UNL1       -0.2914
     39 C         138.4501  138.6597  165.3188 C.3     1  UNL1        0.0620
     40 C         138.0993  137.6515  166.3727 C.3     1  UNL1        0.0081
     41 C         138.4811  139.0474  166.7675 C.3     1  UNL1        0.0081
@<TRIPOS>BOND
     1    10     9    1
     2    10    11    1
     3    11    12   am
     4    12    13    2
     5    12    15    1
     6    15    16   ar
     7    16    17   ar
     8    17    18   ar
     9    18    20    1
    10    20    21   ar
    11    21    22   ar
    12    22    23   ar
    13    23    24    1
    14    23    25   ar
    15    25    26   ar
    16    18    19   ar
    17    10     1    1
    18     1     2    2
    19     1     3   am
    20     3     4    1
    21     4     5    1
    22     5     6    1
    23     6    27    1
    24    27    28    1
    25    28    29    1
    26    29    30    1
    27    30    31    1
    28    31    32   ar
    29    32    33   ar
    30    33    34   ar
    31    34    37    1
    32    37    38    2
    33    37    39    1
    34    39    40    1
    35    40    41    1
    36    34    35   ar
    37    35    36   ar
    38     6     7    1
    39     7     8    1
    40    19    15   ar
    41     8     3    1
    42    26    20   ar
    43    36    31   ar
    44    41    39    1
    45    11    14    1
@<TRIPOS>MOLECULE
*****
 41 45 0 0 0
SMALL
GASTEIGER

@<TRIPOS>ATOM
      1 C         144.6110  141.9049  163.3226 C.2     1  UNL1        0.2436
      2 O         145.5415  142.0796  164.4861 O.2     1  UNL1       -0.2731
      3 N         143.6541  140.7502  163.2942 N.am    1  UNL1       -0.2754
      4 C         142.7237  140.5755  162.1307 C.3     1  UNL1        0.1108
      5 C         141.7668  139.4207  162.1024 C.3     1  UNL1        0.0939
      6 N         141.7403  138.4405  163.2376 N.3     1  UNL1       -0.2697
      7 C         142.6708  138.6151  164.4011 C.3     1  UNL1        0.0939
      8 C         143.6278  139.7700  164.4294 C.3     1  UNL1        0.1108
      9 C         144.0456  144.2522  162.3631 C.3     1  UNL1        0.0312
     10 C         144.6374  142.8851  162.1875 C.3     1  UNL1        0.1491
     11 N         145.2556  142.4981  160.8767 N.am    1  UNL1       -0.2923
     12 C         144.4280  142.5066  159.6256 C.2     1  UNL1        0.2809
     13 O         142.9823  142.9021  159.6853 O.2     1  UNL1       -0.2668
     14 H         146.2044  142.2386  160.8375 H       1  UNL1        0.1502
     15 C         145.0462  142.1197  158.3149 C.ar    1  UNL1        0.1983
     16 C         144.6056  140.9901  157.4316 C.ar    1  UNL1        0.0453
     17 C         145.5006  140.9667  156.2280 C.ar    1  UNL1        0.0408
     18 C         146.4942  142.0817  156.3675 C.ar    1  UNL1        0.1455
     19 O         146.2134  142.7942  157.6572 O.2     1  UNL1       -0.4489
     20 C         147.5784  142.4240  155.3890 C.ar    1  UNL1        0.0346
     21 C         148.8922  141.7021  155.4423 C.ar    1  UNL1        0.0039
     22 C         149.9763  142.0444  154.4638 C.ar    1  UNL1        0.0115
     23 C         149.7467  143.1087  153.4320 C.ar    1  UNL1        0.0577
     24 CL        150.8309  143.4511  152.4536 Cl      1  UNL1       -0.0822
     25 C         148.4329  143.8306  153.3787 C.ar    1  UNL1        0.0115
     26 C         147.3488  143.4883  154.3572 C.ar    1  UNL1        0.0039
     27 C         140.7835  137.2857  163.2092 C.3     1  UNL1        0.0760
     28 C         139.3655  137.4754  163.6601 C.3     1  UNL1        0.0646
     29 C         138.4846  138.4715  162.9660 C.3     1  UNL1        0.2068
     30 O         138.1616  139.7775  163.6294 O.3     1  UNL1       -0.4754
     31 C         138.9332  140.2154  164.8389 C.ar    1  UNL1        0.1386
     32 C         139.9517  141.3105  164.7227 C.ar    1  UNL1        0.0370
     33 C         140.7233  141.7484  165.9322 C.ar    1  UNL1        0.0060
     34 C         140.4764  141.0913  167.2578 C.ar    1  UNL1        0.0349
     35 C         139.4579  139.9962  167.3739 C.ar    1  UNL1        0.0060
     36 C         138.6863  139.5583  166.1644 C.ar    1  UNL1        0.0370
     37 C         141.2480  141.5292  168.4673 C.2     1  UNL1        0.1726
     38 O         142.6151  140.9696  168.7279 O.2     1  UNL1       -0.2914
     39 C         140.6524  142.5267  169.4162 C.3     1  UNL1        0.0620
     40 C         139.7597  142.8397  170.5802 C.3     1  UNL1        0.0081
     41 C         140.5134  143.9412  169.8956 C.3     1  UNL1        0.0081
@<TRIPOS>BOND
     1    10     9    1
     2    10    11    1
     3    11    12   am
     4    12    13    2
     5    12    15    1
     6    15    16   ar
     7    16    17   ar
     8    17    18   ar
     9    18    20    1
    10    20    21   ar
    11    21    22   ar
    12    22    23   ar
    13    23    24    1
    14    23    25   ar
    15    25    26   ar
    16    18    19   ar
    17    10     1    1
    18     1     2    2
    19     1     3   am
    20     3     4    1
    21     4     5    1
    22     5     6    1
    23     6    27    1
    24    27    28    1
    25    28    29    1
    26    29    30    1
    27    30    31    1
    28    31    32   ar
    29    32    33   ar
    30    33    34   ar
    31    34    37    1
    32    37    38    2
    33    37    39    1
    34    39    40    1
    35    40    41    1
    36    34    35   ar
    37    35    36   ar
    38     6     7    1
    39     7     8    1
    40    19    15   ar
    41     8     3    1
    42    26    20   ar
    43    36    31   ar
    44    41    39    1
    45    11    14    1
@<TRIPOS>MOLECULE
*****
 41 45 0 0 0
SMALL
GASTEIGER

@<TRIPOS>ATOM
      1 C         143.0178  138.9342  161.0651 C.2     1  UNL1        0.2436
      2 O         143.9157  138.1536  161.9786 O.2     1  UNL1       -0.2731
      3 N         141.7788  139.5837  161.6065 N.am    1  UNL1       -0.2754
      4 C         140.8809  140.3643  160.6930 C.3     1  UNL1        0.1108
      5 C         139.6419  141.0138  161.2343 C.3     1  UNL1        0.0939
      6 N         139.3008  140.8827  162.6892 N.3     1  UNL1       -0.2697
      7 C         140.1987  140.1021  163.6027 C.3     1  UNL1        0.0939
      8 C         141.4378  139.4526  163.0613 C.3     1  UNL1        0.1108
      9 C         143.8030  140.3883  159.0604 C.3     1  UNL1        0.0312
     10 C         143.3588  139.0653  159.6103 C.3     1  UNL1        0.1491
     11 N         143.2557  137.8734  158.7055 N.am    1  UNL1       -0.2923
     12 C         142.1476  137.7903  157.6979 C.2     1  UNL1        0.2809
     13 O         141.1426  138.8991  157.5952 O.2     1  UNL1       -0.2668
     14 H         143.9153  137.1457  158.7729 H       1  UNL1        0.1502
     15 C         142.0444  136.5985  156.7931 C.ar    1  UNL1        0.1983
     16 C         141.0057  136.3840  155.7323 C.ar    1  UNL1        0.0453
     17 C         141.2812  135.0647  155.0738 C.ar    1  UNL1        0.0408
     18 C         142.4902  134.4639  155.7275 C.ar    1  UNL1        0.1455
     19 O         142.9619  135.4118  156.7900 O.2     1  UNL1       -0.4489
     20 C         143.1174  133.1464  155.3797 C.ar    1  UNL1        0.0346
     21 C         142.7465  132.4531  154.1023 C.ar    1  UNL1        0.0039
     22 C         143.3737  131.1357  153.7545 C.ar    1  UNL1        0.0115
     23 C         144.3718  130.5115  154.6842 C.ar    1  UNL1        0.0577
     24 CL        144.9990  129.1940  154.3364 Cl      1  UNL1       -0.0822
     25 C         144.7427  131.2048  155.9616 C.ar    1  UNL1        0.0115
     26 C         144.1155  132.5222  156.3093 C.ar    1  UNL1        0.0039
     27 C         138.0618  141.5322  163.2305 C.3     1  UNL1        0.0760
     28 C         137.7141  142.9352  162.8296 C.3     1  UNL1        0.0646
     29 C         137.6511  144.0177  163.8660 C.3     1  UNL1        0.2068
     30 O         138.7404  145.0460  163.9435 O.3     1  UNL1       -0.4754
     31 C         140.1551  144.6218  164.2055 C.ar    1  UNL1        0.1386
     32 C         141.2865  145.3052  163.4964 C.ar    1  UNL1        0.0370
     33 C         142.7012  144.8810  163.7584 C.ar    1  UNL1        0.0060
     34 C         142.9845  143.7734  164.7294 C.ar    1  UNL1        0.0349
     35 C         141.8530  143.0900  165.4385 C.ar    1  UNL1        0.0060
     36 C         140.4383  143.5142  165.1766 C.ar    1  UNL1        0.0370
     37 C         144.3992  143.3491  164.9915 C.2     1  UNL1        0.1726
     38 O         145.2162  144.0619  166.0280 O.2     1  UNL1       -0.2914
     39 C         144.9968  142.2121  164.2168 C.3     1  UNL1        0.0620
     40 C         145.3422  140.7567  164.1042 C.3     1  UNL1        0.0081
     41 C         145.6864  141.6979  162.9880 C.3     1  UNL1        0.0081
@<TRIPOS>BOND
     1    10     9    1
     2    10    11    1
     3    11    12   am
     4    12    13    2
     5    12    15    1
     6    15    16   ar
     7    16    17   ar
     8    17    18   ar
     9    18    20    1
    10    20    21   ar
    11    21    22   ar
    12    22    23   ar
    13    23    24    1
    14    23    25   ar
    15    25    26   ar
    16    18    19   ar
    17    10     1    1
    18     1     2    2
    19     1     3   am
    20     3     4    1
    21     4     5    1
    22     5     6    1
    23     6    27    1
    24    27    28    1
    25    28    29    1
    26    29    30    1
    27    30    31    1
    28    31    32   ar
    29    32    33   ar
    30    33    34   ar
    31    34    37    1
    32    37    38    2
    33    37    39    1
    34    39    40    1
    35    40    41    1
    36    34    35   ar
    37    35    36   ar
    38     6     7    1
    39     7     8    1
    40    19    15   ar
    41     8     3    1
    42    26    20   ar
    43    36    31   ar
    44    41    39    1
    45    11    14    1
@<TRIPOS>MOLECULE
*****
 41 45 0 0 0
SMALL
GASTEIGER

@<TRIPOS>ATOM
      1 C         140.8869  144.9441  159.9649 C.2     1  UNL1        0.2436
      2 O         141.9943  145.7050  159.2981 O.2     1  UNL1       -0.2731
      3 N         140.3167  143.7212  159.3096 N.am    1  UNL1       -0.2754
      4 C         139.2092  142.9603  159.9763 C.3     1  UNL1        0.1108
      5 C         138.6390  141.7375  159.3210 C.3     1  UNL1        0.0939
      6 N         139.1762  141.2755  157.9988 N.3     1  UNL1       -0.2697
      7 C         140.2837  142.0365  157.3320 C.3     1  UNL1        0.0939
      8 C         140.8539  143.2594  157.9874 C.3     1  UNL1        0.1108
      9 C         139.4703  146.6191  161.3568 C.3     1  UNL1        0.0312
     10 C         140.3497  145.4059  161.2871 C.3     1  UNL1        0.1491
     11 N         140.6919  144.6546  162.5394 N.am    1  UNL1       -0.2923
     12 C         142.1253  144.3615  162.8702 C.2     1  UNL1        0.2809
     13 O         143.2165  144.8198  161.9487 O.2     1  UNL1       -0.2668
     14 H         139.9757  144.3539  163.1443 H       1  UNL1        0.1502
     15 C         142.4675  143.6102  164.1226 C.ar    1  UNL1        0.1983
     16 C         143.8488  143.2604  164.5913 C.ar    1  UNL1        0.0453
     17 C         143.7235  142.5108  165.8845 C.ar    1  UNL1        0.0408
     18 C         142.2648  142.3973  166.2151 C.ar    1  UNL1        0.1455
     19 O         141.4885  143.0768  165.1261 O.2     1  UNL1       -0.4489
     20 C         141.6842  141.7228  167.4225 C.ar    1  UNL1        0.0346
     21 C         140.6030  142.3991  168.2122 C.ar    1  UNL1        0.0039
     22 C         140.0225  141.7246  169.4197 C.ar    1  UNL1        0.0115
     23 C         140.5230  140.3737  169.8374 C.ar    1  UNL1        0.0577
     24 CL        139.9424  139.6992  171.0449 Cl      1  UNL1       -0.0822
     25 C         141.6042  139.6973  169.0477 C.ar    1  UNL1        0.0115
     26 C         142.1847  140.3719  167.8403 C.ar    1  UNL1        0.0039
     27 C         138.6060  140.0527  157.3434 C.3     1  UNL1        0.0760
     28 C         139.4922  138.8802  157.0434 C.3     1  UNL1        0.0646
     29 C         139.9150  137.9576  158.1480 C.3     1  UNL1        0.2068
     30 O         140.8127  138.4578  159.2407 O.3     1  UNL1       -0.4754
     31 C         140.2248  138.9271  160.5384 C.ar    1  UNL1        0.1386
     32 C         140.9591  139.9332  161.3742 C.ar    1  UNL1        0.0370
     33 C         140.3712  140.4025  162.6719 C.ar    1  UNL1        0.0060
     34 C         139.0489  139.8656  163.1339 C.ar    1  UNL1        0.0349
     35 C         138.3146  138.8595  162.2981 C.ar    1  UNL1        0.0060
     36 C         138.9025  138.3902  161.0004 C.ar    1  UNL1        0.0370
     37 C         138.4609  140.3349  164.4316 C.2     1  UNL1        0.1726
     38 O         137.9475  141.7386  164.5584 O.2     1  UNL1       -0.2914
     39 C         138.3865  139.4004  165.6026 C.3     1  UNL1        0.0620
     40 C         138.4471  139.1653  167.0828 C.3     1  UNL1        0.0081
     41 C         138.1970  138.0170  166.1506 C.3     1  UNL1        0.0081
@<TRIPOS>BOND
     1    10     9    1
     2    10    11    1
     3    11    12   am
     4    12    13    2
     5    12    15    1
     6    15    16   ar
     7    16    17   ar
     8    17    18   ar
     9    18    20    1
    10    20    21   ar
    11    21    22   ar
    12    22    23   ar
    13    23    24    1
    14    23    25   ar
    15    25    26   ar
    16    18    19   ar
    17    10     1    1
    18     1     2    2
    19     1     3   am
    20     3     4    1
    21     4     5    1
    22     5     6    1
    23     6    27    1
    24    27    28    1
    25    28    29    1
    26    29    30    1
    27    30    31    1
    28    31    32   ar
    29    32    33   ar
    30    33    34   ar
    31    34    37    1
    32    37    38    2
    33    37    39    1
    34    39    40    1
    35    40    41    1
    36    34    35   ar
    37    35    36   ar
    38     6     7    1
    39     7     8    1
    40    19    15   ar
    41     8     3    1
    42    26    20   ar
    43    36    31   ar
    44    41    39    1
    45    11    14    1
@<TRIPOS>MOLECULE
*****
 41 45 0 0 0
SMALL
GASTEIGER

@<TRIPOS>ATOM
      1 C         139.5080  139.3883  160.4415 C.2     1  UNL1        0.2436
      2 O         140.4608  138.2301  160.4114 O.2     1  UNL1       -0.2731
      3 N         139.7081  140.5484  159.5120 N.am    1  UNL1       -0.2754
      4 C         138.7553  141.7066  159.5421 C.3     1  UNL1        0.1108
      5 C         138.9554  142.8667  158.6125 C.3     1  UNL1        0.0939
      6 N         140.1083  142.8686  157.6528 N.3     1  UNL1       -0.2697
      7 C         141.0610  141.7104  157.6227 C.3     1  UNL1        0.0939
      8 C         140.8609  140.5503  158.5523 C.3     1  UNL1        0.1108
      9 C         137.0008  138.9302  160.9456 C.3     1  UNL1        0.0312
     10 C         138.3552  139.3864  161.4012 C.3     1  UNL1        0.1491
     11 N         138.5568  139.8406  162.8165 N.am    1  UNL1       -0.2923
     12 C         138.8193  138.8339  163.8971 C.2     1  UNL1        0.2809
     13 O         138.8802  137.3730  163.5625 O.2     1  UNL1       -0.2668
     14 H         138.5168  140.7994  163.0362 H       1  UNL1        0.1502
     15 C         139.0209  139.2881  165.3124 C.ar    1  UNL1        0.1983
     16 C         138.1577  138.9284  166.4853 C.ar    1  UNL1        0.0453
     17 C         138.7244  139.5998  167.7010 C.ar    1  UNL1        0.0408
     18 C         139.9377  140.3745  167.2796 C.ar    1  UNL1        0.1455
     19 O         140.1210  140.1819  165.8033 O.2     1  UNL1       -0.4489
     20 C         140.8141  141.1974  168.1769 C.ar    1  UNL1        0.0346
     21 C         140.2204  142.3075  168.9924 C.ar    1  UNL1        0.0039
     22 C         141.0967  143.1303  169.8896 C.ar    1  UNL1        0.0115
     23 C         142.5667  142.8430  169.9713 C.ar    1  UNL1        0.0577
     24 CL        143.4430  143.6658  170.8685 Cl      1  UNL1       -0.0822
     25 C         143.1603  141.7328  169.1557 C.ar    1  UNL1        0.0115
     26 C         142.2840  140.9100  168.2585 C.ar    1  UNL1        0.0039
     27 C         140.3084  144.0287  156.7232 C.3     1  UNL1        0.0760
     28 C         141.5148  144.9080  156.8700 C.3     1  UNL1        0.0646
     29 C         141.6554  145.7939  158.0722 C.3     1  UNL1        0.2068
     30 O         140.5515  145.8640  159.0854 O.3     1  UNL1       -0.4754
     31 C         140.7570  145.2973  160.4589 C.ar    1  UNL1        0.1386
     32 C         140.0454  145.9005  161.6334 C.ar    1  UNL1        0.0370
     33 C         140.2509  145.3338  163.0069 C.ar    1  UNL1        0.0060
     34 C         141.1681  144.1637  163.2058 C.ar    1  UNL1        0.0349
     35 C         141.8798  143.5604  162.0313 C.ar    1  UNL1        0.0060
     36 C         141.6743  144.1272  160.6578 C.ar    1  UNL1        0.0370
     37 C         141.3737  143.5968  164.5794 C.2     1  UNL1        0.1726
     38 O         140.2618  143.6455  165.5850 O.2     1  UNL1       -0.2914
     39 C         142.6912  142.9812  164.9471 C.3     1  UNL1        0.0620
     40 C         143.9910  143.0437  165.6932 C.3     1  UNL1        0.0081
     41 C         143.6734  141.8528  164.8381 C.3     1  UNL1        0.0081
@<TRIPOS>BOND
     1    10     9    1
     2    10    11    1
     3    11    12   am
     4    12    13    2
     5    12    15    1
     6    15    16   ar
     7    16    17   ar
     8    17    18   ar
     9    18    20    1
    10    20    21   ar
    11    21    22   ar
    12    22    23   ar
    13    23    24    1
    14    23    25   ar
    15    25    26   ar
    16    18    19   ar
    17    10     1    1
    18     1     2    2
    19     1     3   am
    20     3     4    1
    21     4     5    1
    22     5     6    1
    23     6    27    1
    24    27    28    1
    25    28    29    1
    26    29    30    1
    27    30    31    1
    28    31    32   ar
    29    32    33   ar
    30    33    34   ar
    31    34    37    1
    32    37    38    2
    33    37    39    1
    34    39    40    1
    35    40    41    1
    36    34    35   ar
    37    35    36   ar
    38     6     7    1
    39     7     8    1
    40    19    15   ar
    41     8     3    1
    42    26    20   ar
    43    36    31   ar
    44    41    39    1
    45    11    14    1
@<TRIPOS>MOLECULE
*****
 41 45 0 0 0
SMALL
GASTEIGER

@<TRIPOS>ATOM
      1 C         143.2383  139.4655  161.4341 C.2     1  UNL1        0.2436
      2 O         144.5170  139.2904  162.1985 O.2     1  UNL1       -0.2731
      3 N         142.7472  140.8426  161.0991 N.am    1  UNL1       -0.2754
      4 C         141.4685  141.0177  160.3347 C.3     1  UNL1        0.1108
      5 C         140.9775  142.3948  159.9998 C.3     1  UNL1        0.0939
      6 N         141.7651  143.5971  160.4292 N.3     1  UNL1       -0.2697
      7 C         143.0438  143.4220  161.1937 C.3     1  UNL1        0.0939
      8 C         143.5349  142.0448  161.5286 C.3     1  UNL1        0.1108
      9 C         141.1545  137.9339  161.6840 C.3     1  UNL1        0.0312
     10 C         142.4506  138.2633  161.0046 C.3     1  UNL1        0.1491
     11 N         142.9591  137.3905  159.8957 N.am    1  UNL1       -0.2923
     12 C         142.4223  137.5560  158.5048 C.2     1  UNL1        0.2809
     13 O         141.3770  138.5942  158.2229 O.2     1  UNL1       -0.2668
     14 H         143.6452  136.7091  160.0807 H       1  UNL1        0.1502
     15 C         142.9307  136.6832  157.3959 C.ar    1  UNL1        0.1983
     16 C         143.5032  137.1570  156.0928 C.ar    1  UNL1        0.0453
     17 C         143.8823  135.9500  155.2869 C.ar    1  UNL1        0.0408
     18 C         143.5442  134.7303  156.0919 C.ar    1  UNL1        0.1455
     19 O         142.9561  135.1834  157.3953 O.2     1  UNL1       -0.4489
     20 C         143.7569  133.3072  155.6679 C.ar    1  UNL1        0.0346
     21 C         142.9969  132.7509  154.5005 C.ar    1  UNL1        0.0039
     22 C         143.2095  131.3279  154.0765 C.ar    1  UNL1        0.0115
     23 C         144.1822  130.4612  154.8200 C.ar    1  UNL1        0.0577
     24 CL        144.3948  129.0381  154.3960 Cl      1  UNL1       -0.0822
     25 C         144.9422  131.0175  155.9874 C.ar    1  UNL1        0.0115
     26 C         144.7295  132.4405  156.4114 C.ar    1  UNL1        0.0039
     27 C         141.2740  144.9743  160.0943 C.3     1  UNL1        0.0760
     28 C         139.9850  145.4732  160.6769 C.3     1  UNL1        0.0646
     29 C         139.9869  146.2023  161.9878 C.3     1  UNL1        0.2068
     30 O         139.4253  145.5440  163.2130 O.3     1  UNL1       -0.4754
     31 C         139.1443  144.0706  163.2107 C.ar    1  UNL1        0.1386
     32 C         137.7799  143.5679  162.8419 C.ar    1  UNL1        0.0370
     33 C         137.4988  142.0945  162.8396 C.ar    1  UNL1        0.0060
     34 C         138.5821  141.1238  163.2060 C.ar    1  UNL1        0.0349
     35 C         139.9464  141.6265  163.5748 C.ar    1  UNL1        0.0060
     36 C         140.2275  143.0999  163.5771 C.ar    1  UNL1        0.0370
     37 C         138.3010  139.6503  163.2037 C.2     1  UNL1        0.1726
     38 O         137.7321  138.9972  161.9790 O.2     1  UNL1       -0.2914
     39 C         138.5890  138.8300  164.4261 C.3     1  UNL1        0.0620
     40 C         138.3972  138.5703  165.8909 C.3     1  UNL1        0.0081
     41 C         139.2794  137.6692  165.0786 C.3     1  UNL1        0.0081
@<TRIPOS>BOND
     1    10     9    1
     2    10    11    1
     3    11    12   am
     4    12    13    2
     5    12    15    1
     6    15    16   ar
     7    16    17   ar
     8    17    18   ar
     9    18    20    1
    10    20    21   ar
    11    21    22   ar
    12    22    23   ar
    13    23    24    1
    14    23    25   ar
    15    25    26   ar
    16    18    19   ar
    17    10     1    1
    18     1     2    2
    19     1     3   am
    20     3     4    1
    21     4     5    1
    22     5     6    1
    23     6    27    1
    24    27    28    1
    25    28    29    1
    26    29    30    1
    27    30    31    1
    28    31    32   ar
    29    32    33   ar
    30    33    34   ar
    31    34    37    1
    32    37    38    2
    33    37    39    1
    34    39    40    1
    35    40    41    1
    36    34    35   ar
    37    35    36   ar
    38     6     7    1
    39     7     8    1
    40    19    15   ar
    41     8     3    1
    42    26    20   ar
    43    36    31   ar
    44    41    39    1
    45    11    14    1
@<TRIPOS>MOLECULE
*****
 41 45 0 0 0
SMALL
GASTEIGER

@<TRIPOS>ATOM
      1 C         141.1662  139.1421  159.7513 C.2     1  UNL1        0.2436
      2 O         139.7858  138.5594  159.6809 O.2     1  UNL1       -0.2731
      3 N         141.5018  140.3730  158.9626 N.am    1  UNL1       -0.2754
      4 C         142.8822  140.9557  159.0330 C.3     1  UNL1        0.1108
      5 C         143.2178  142.1867  158.2442 C.3     1  UNL1        0.0939
      6 N         142.1730  142.8350  157.3851 N.3     1  UNL1       -0.2697
      7 C         140.7926  142.2523  157.3147 C.3     1  UNL1        0.0939
      8 C         140.4570  141.0213  158.1035 C.3     1  UNL1        0.1108
      9 C         143.0540  137.3834  160.0569 C.3     1  UNL1        0.0312
     10 C         142.2110  138.4938  160.6104 C.3     1  UNL1        0.1491
     11 N         142.4129  138.9561  162.0231 N.am    1  UNL1       -0.2923
     12 C         141.7894  138.1972  163.1568 C.2     1  UNL1        0.2809
     13 O         140.9640  136.9762  162.8780 O.2     1  UNL1       -0.2668
     14 H         142.9547  139.7575  162.2061 H       1  UNL1        0.1502
     15 C         141.9913  138.6595  164.5695 C.ar    1  UNL1        0.1983
     16 C         143.1195  138.2618  165.4746 C.ar    1  UNL1        0.0453
     17 C         142.9259  138.9571  166.7896 C.ar    1  UNL1        0.0408
     18 C         141.6781  139.7844  166.6972 C.ar    1  UNL1        0.1455
     19 O         141.1005  139.6005  165.3251 O.2     1  UNL1       -0.4489
     20 C         141.1080  140.6447  167.7858 C.ar    1  UNL1        0.0346
     21 C         141.0536  142.1338  167.6140 C.ar    1  UNL1        0.0039
     22 C         140.4835  142.9940  168.7025 C.ar    1  UNL1        0.0115
     23 C         139.9678  142.3651  169.9629 C.ar    1  UNL1        0.0577
     24 CL        139.3976  143.2254  171.0515 Cl      1  UNL1       -0.0822
     25 C         140.0222  140.8760  170.1347 C.ar    1  UNL1        0.0115
     26 C         140.5923  140.0158  169.0461 C.ar    1  UNL1        0.0039
     27 C         142.5086  144.0660  156.5963 C.3     1  UNL1        0.0760
     28 C         141.7641  145.3438  156.8474 C.3     1  UNL1        0.0646
     29 C         141.0528  145.5536  158.1513 C.3     1  UNL1        0.2068
     30 O         141.7924  145.3827  159.4451 O.3     1  UNL1       -0.4754
     31 C         141.0596  144.9325  160.6740 C.ar    1  UNL1        0.1386
     32 C         140.1588  145.8860  161.4017 C.ar    1  UNL1        0.0370
     33 C         139.4260  145.4358  162.6306 C.ar    1  UNL1        0.0060
     34 C         139.5941  144.0320  163.1319 C.ar    1  UNL1        0.0349
     35 C         140.4948  143.0785  162.4043 C.ar    1  UNL1        0.0060
     36 C         141.2276  143.5287  161.1753 C.ar    1  UNL1        0.0370
     37 C         138.8613  143.5818  164.3609 C.2     1  UNL1        0.1726
     38 O         138.5700  144.5592  165.4608 O.2     1  UNL1       -0.2914
     39 C         138.4198  142.1540  164.4899 C.3     1  UNL1        0.0620
     40 C         137.7744  140.9355  163.8994 C.3     1  UNL1        0.0081
     41 C         138.3005  140.8996  165.3036 C.3     1  UNL1        0.0081
@<TRIPOS>BOND
     1    10     9    1
     2    10    11    1
     3    11    12   am
     4    12    13    2
     5    12    15    1
     6    15    16   ar
     7    16    17   ar
     8    17    18   ar
     9    18    20    1
    10    20    21   ar
    11    21    22   ar
    12    22    23   ar
    13    23    24    1
    14    23    25   ar
    15    25    26   ar
    16    18    19   ar
    17    10     1    1
    18     1     2    2
    19     1     3   am
    20     3     4    1
    21     4     5    1
    22     5     6    1
    23     6    27    1
    24    27    28    1
    25    28    29    1
    26    29    30    1
    27    30    31    1
    28    31    32   ar
    29    32    33   ar
    30    33    34   ar
    31    34    37    1
    32    37    38    2
    33    37    39    1
    34    39    40    1
    35    40    41    1
    36    34    35   ar
    37    35    36   ar
    38     6     7    1
    39     7     8    1
    40    19    15   ar
    41     8     3    1
    42    26    20   ar
    43    36    31   ar
    44    41    39    1
    45    11    14    1
