@<TRIPOS>MOLECULE
*****
 22 23 0 0 0
SMALL
GASTEIGER

@<TRIPOS>ATOM
      1 C         141.6463  140.1607  169.1872 C.ar    1  UNL1        0.0952
      2 C         140.3422  140.7405  168.7254 C.ar    1  UNL1        0.0145
      3 C         139.7229  141.4679  169.8819 C.ar    1  UNL1        0.0369
      4 S         140.6442  141.3377  171.0584 S.2     1  UNL1       -0.0721
      5 C         141.8330  140.5298  170.6290 C.ar    1  UNL1        0.0782
      6 N         143.0030  140.1566  171.4903 N.pl3   1  UNL1       -0.3519
      7 H         143.0349  140.4476  172.4303 H       1  UNL1        0.1428
      8 H         143.7389  139.6207  171.1156 H       1  UNL1        0.1428
      9 C         139.7596  140.6148  167.3488 C.ar    1  UNL1        0.0008
     10 C         138.8859  139.4442  167.0081 C.ar    1  UNL1        0.0013
     11 C         138.3035  139.3186  165.6316 C.ar    1  UNL1        0.0145
     12 C         138.5947  140.3637  164.5957 C.ar    1  UNL1        0.0479
     13 C         139.4684  141.5343  164.9364 C.ar    1  UNL1        0.0145
     14 C         140.0508  141.6599  166.3130 C.ar    1  UNL1        0.0013
     15 N         138.0121  140.2380  163.2191 N.pl3   1  UNL1       -0.3041
     16 C         138.0815  138.9279  162.4921 C.3     1  UNL1        0.1122
     17 C         137.3603  141.4226  162.5697 C.3     1  UNL1        0.1122
     18 C         142.5968  139.3536  168.3535 C.2     1  UNL1        0.3429
     19 O         143.2741  138.1509  168.9407 O.2     1  UNL1       -0.2448
     20 O         142.8701  139.7491  166.9327 O.3     1  UNL1       -0.4454
     21 C         141.8584  138.1669  165.1374 C.3     1  UNL1        0.0513
     22 C         143.0493  138.6941  165.8816 C.3     1  UNL1        0.2089
@<TRIPOS>BOND
     1    21    22    1
     2    22    20    1
     3    20    18    1
     4    18    19    2
     5    18     1    1
     6     1     2   ar
     7     2     9    1
     8     9    10   ar
     9    10    11   ar
    10    11    12   ar
    11    12    15    1
    12    15    16    1
    13    15    17    1
    14    12    13   ar
    15    13    14   ar
    16     2     3   ar
    17     3     4   ar
    18     4     5   ar
    19     5     6    1
    20     5     1   ar
    21    14     9   ar
    22     6     7    1
    23     6     8    1
@<TRIPOS>MOLECULE
*****
 22 23 0 0 0
SMALL
GASTEIGER

@<TRIPOS>ATOM
      1 C         141.6274  140.1481  169.1947 C.ar    1  UNL1        0.0952
      2 C         140.3375  140.7323  168.7001 C.ar    1  UNL1        0.0145
      3 C         139.7161  141.5038  169.8264 C.ar    1  UNL1        0.0369
      4 S         140.6220  141.3965  171.0171 S.2     1  UNL1       -0.0721
      5 C         141.8033  140.5585  170.6267 C.ar    1  UNL1        0.0782
      6 N         142.9578  140.1949  171.5127 N.pl3   1  UNL1       -0.3519
      7 H         142.9834  140.5141  172.4436 H       1  UNL1        0.1428
      8 H         143.6898  139.6370  171.1632 H       1  UNL1        0.1428
      9 C         139.7687  140.5729  167.3212 C.ar    1  UNL1        0.0008
     10 C         140.0858  141.5822  166.2579 C.ar    1  UNL1        0.0013
     11 C         139.5171  141.4228  164.8791 C.ar    1  UNL1        0.0145
     12 C         138.6313  140.2541  164.5636 C.ar    1  UNL1        0.0479
     13 C         138.3142  139.2448  165.6270 C.ar    1  UNL1        0.0145
     14 C         138.8829  139.4042  167.0057 C.ar    1  UNL1        0.0013
     15 N         138.0626  140.0948  163.1847 N.pl3   1  UNL1       -0.3041
     16 C         138.1669  138.7757  162.4783 C.3     1  UNL1        0.1122
     17 C         137.3895  141.2545  162.5124 C.3     1  UNL1        0.1122
     18 C         142.5752  139.3019  168.3973 C.2     1  UNL1        0.3429
     19 O         143.2626  138.1348  169.0419 O.2     1  UNL1       -0.2448
     20 O         142.8356  139.6228  166.9554 O.3     1  UNL1       -0.4454
     21 C         141.8617  138.1998  165.0122 C.3     1  UNL1        0.0513
     22 C         142.9846  138.5147  165.9555 C.3     1  UNL1        0.2089
@<TRIPOS>BOND
     1    21    22    1
     2    22    20    1
     3    20    18    1
     4    18    19    2
     5    18     1    1
     6     1     2   ar
     7     2     9    1
     8     9    10   ar
     9    10    11   ar
    10    11    12   ar
    11    12    15    1
    12    15    16    1
    13    15    17    1
    14    12    13   ar
    15    13    14   ar
    16     2     3   ar
    17     3     4   ar
    18     4     5   ar
    19     5     6    1
    20     5     1   ar
    21    14     9   ar
    22     6     7    1
    23     6     8    1
@<TRIPOS>MOLECULE
*****
 22 23 0 0 0
SMALL
GASTEIGER

@<TRIPOS>ATOM
      1 C         139.8146  140.0813  168.5753 C.ar    1  UNL1        0.0952
      2 C         141.2532  140.5001  168.5061 C.ar    1  UNL1        0.0145
      3 C         141.6967  140.8658  169.8916 C.ar    1  UNL1        0.0369
      4 S         140.5321  140.6730  170.8171 S.2     1  UNL1       -0.0721
      5 C         139.3688  140.1881  170.0036 C.ar    1  UNL1        0.0782
      6 N         138.0002  139.8665  170.5265 N.pl3   1  UNL1       -0.3519
      7 H         137.8032  139.9689  171.4856 H       1  UNL1        0.1428
      8 H         137.2990  139.5532  169.9106 H       1  UNL1        0.1428
      9 C         142.0998  140.5453  167.2686 C.ar    1  UNL1        0.0008
     10 C         142.3641  141.8556  166.5881 C.ar    1  UNL1        0.0013
     11 C         143.2106  141.9008  165.3507 C.ar    1  UNL1        0.0145
     12 C         143.7929  140.6356  164.7938 C.ar    1  UNL1        0.0479
     13 C         143.5287  139.3252  165.4743 C.ar    1  UNL1        0.0145
     14 C         142.6822  139.2801  166.7117 C.ar    1  UNL1        0.0013
     15 N         144.6395  140.6807  163.5563 N.pl3   1  UNL1       -0.3041
     16 C         144.3192  139.7865  162.3954 C.3     1  UNL1        0.1122
     17 C         145.8064  141.6202  163.4797 C.3     1  UNL1        0.1122
     18 C         138.9699  139.6341  167.4192 C.2     1  UNL1        0.3429
     19 O         137.8472  138.6644  167.6414 O.2     1  UNL1       -0.2448
     20 O         139.2477  140.1566  166.0409 O.3     1  UNL1       -0.4454
     21 C         139.8138  137.9492  164.7932 C.3     1  UNL1        0.0513
     22 C         139.0836  139.2582  164.8510 C.3     1  UNL1        0.2089
@<TRIPOS>BOND
     1    21    22    1
     2    22    20    1
     3    20    18    1
     4    18    19    2
     5    18     1    1
     6     1     2   ar
     7     2     9    1
     8     9    10   ar
     9    10    11   ar
    10    11    12   ar
    11    12    15    1
    12    15    16    1
    13    15    17    1
    14    12    13   ar
    15    13    14   ar
    16     2     3   ar
    17     3     4   ar
    18     4     5   ar
    19     5     6    1
    20     5     1   ar
    21    14     9   ar
    22     6     7    1
    23     6     8    1
@<TRIPOS>MOLECULE
*****
 22 23 0 0 0
SMALL
GASTEIGER

@<TRIPOS>ATOM
      1 C         140.0821  141.0152  168.4952 C.ar    1  UNL1        0.0952
      2 C         140.6489  142.3512  168.1161 C.ar    1  UNL1        0.0145
      3 C         140.5467  143.2538  169.3098 C.ar    1  UNL1        0.0369
      4 S         139.9166  142.4756  170.4266 S.2     1  UNL1       -0.0721
      5 C         139.6294  141.0921  169.9232 C.ar    1  UNL1        0.0782
      6 N         139.0001  139.9806  170.7097 N.pl3   1  UNL1       -0.3519
      7 H         138.7355  140.1289  171.6463 H       1  UNL1        0.1428
      8 H         138.8518  139.1028  170.2893 H       1  UNL1        0.1428
      9 C         141.2182  142.7199  166.7781 C.ar    1  UNL1        0.0008
     10 C         142.6726  142.4895  166.4926 C.ar    1  UNL1        0.0013
     11 C         143.2418  142.8581  165.1546 C.ar    1  UNL1        0.0145
     12 C         142.3566  143.4573  164.1023 C.ar    1  UNL1        0.0479
     13 C         140.9022  143.6877  164.3879 C.ar    1  UNL1        0.0145
     14 C         140.3330  143.3190  165.7258 C.ar    1  UNL1        0.0013
     15 N         142.9258  143.8259  162.7643 N.pl3   1  UNL1       -0.3041
     16 C         142.0373  144.4100  161.7064 C.3     1  UNL1        0.1122
     17 C         144.3836  143.6105  162.4844 C.3     1  UNL1        0.1122
     18 C         139.9849  139.8133  167.6030 C.2     1  UNL1        0.3429
     19 O         141.1870  139.3508  166.8343 O.2     1  UNL1       -0.2448
     20 O         138.6857  139.0740  167.4795 O.3     1  UNL1       -0.4454
     21 C         138.1603  140.0773  165.1414 C.3     1  UNL1        0.0513
     22 C         138.0015  138.9768  166.1482 C.3     1  UNL1        0.2089
@<TRIPOS>BOND
     1    21    22    1
     2    22    20    1
     3    20    18    1
     4    18    19    2
     5    18     1    1
     6     1     2   ar
     7     2     9    1
     8     9    10   ar
     9    10    11   ar
    10    11    12   ar
    11    12    15    1
    12    15    16    1
    13    15    17    1
    14    12    13   ar
    15    13    14   ar
    16     2     3   ar
    17     3     4   ar
    18     4     5   ar
    19     5     6    1
    20     5     1   ar
    21    14     9   ar
    22     6     7    1
    23     6     8    1
@<TRIPOS>MOLECULE
*****
 22 23 0 0 0
SMALL
GASTEIGER

@<TRIPOS>ATOM
      1 C         140.0668  140.8357  168.8681 C.ar    1  UNL1        0.0952
      2 C         140.7721  142.0856  168.4316 C.ar    1  UNL1        0.0145
      3 C         141.4543  142.6755  169.6302 C.ar    1  UNL1        0.0369
      4 S         141.1705  141.7903  170.8075 S.2     1  UNL1       -0.0721
      5 C         140.3130  140.6532  170.3364 C.ar    1  UNL1        0.0782
      6 N         139.7930  139.5308  171.1848 N.pl3   1  UNL1       -0.3519
      7 H         140.0101  139.4977  172.1445 H       1  UNL1        0.1428
      8 H         139.2347  138.8271  170.7819 H       1  UNL1        0.1428
      9 C         140.7918  142.6469  167.0407 C.ar    1  UNL1        0.0008
     10 C         139.6577  143.5037  166.5616 C.ar    1  UNL1        0.0013
     11 C         139.6774  144.0649  165.1707 C.ar    1  UNL1        0.0145
     12 C         140.8313  143.7695  164.2590 C.ar    1  UNL1        0.0479
     13 C         141.9655  142.9127  164.7381 C.ar    1  UNL1        0.0145
     14 C         141.9457  142.3515  166.1290 C.ar    1  UNL1        0.0013
     15 N         140.8510  144.3308  162.8681 N.pl3   1  UNL1       -0.3041
     16 C         142.0551  144.1320  161.9961 C.3     1  UNL1        0.1122
     17 C         139.6665  145.0909  162.3492 C.3     1  UNL1        0.1122
     18 C         139.2574  139.9278  167.9903 C.2     1  UNL1        0.3429
     19 O         138.1129  139.1497  168.5689 O.2     1  UNL1       -0.2448
     20 O         139.5923  139.7980  166.5340 O.3     1  UNL1       -0.4454
     21 C         138.2307  140.7310  164.5276 C.3     1  UNL1        0.0513
     22 C         138.4953  139.6406  165.5232 C.3     1  UNL1        0.2089
@<TRIPOS>BOND
     1    21    22    1
     2    22    20    1
     3    20    18    1
     4    18    19    2
     5    18     1    1
     6     1     2   ar
     7     2     9    1
     8     9    10   ar
     9    10    11   ar
    10    11    12   ar
    11    12    15    1
    12    15    16    1
    13    15    17    1
    14    12    13   ar
    15    13    14   ar
    16     2     3   ar
    17     3     4   ar
    18     4     5   ar
    19     5     6    1
    20     5     1   ar
    21    14     9   ar
    22     6     7    1
    23     6     8    1
@<TRIPOS>MOLECULE
*****
 22 23 0 0 0
SMALL
GASTEIGER

@<TRIPOS>ATOM
      1 C         141.7241  139.9121  168.4111 C.ar    1  UNL1        0.0952
      2 C         140.4442  140.6780  168.2522 C.ar    1  UNL1        0.0145
      3 C         139.7686  140.7347  169.5903 C.ar    1  UNL1        0.0369
      4 S         140.6310  140.0037  170.5762 S.2     1  UNL1       -0.0721
      5 C         141.8396  139.4953  169.8474 C.ar    1  UNL1        0.0782
      6 N         142.9658  138.7084  170.4493 N.pl3   1  UNL1       -0.3519
      7 H         142.9515  138.4823  171.4074 H       1  UNL1        0.1428
      8 H         143.7194  138.4180  169.8862 H       1  UNL1        0.1428
      9 C         139.9301  141.2814  166.9787 C.ar    1  UNL1        0.0008
     10 C         139.1129  140.4527  166.0325 C.ar    1  UNL1        0.0013
     11 C         138.5988  141.0560  164.7591 C.ar    1  UNL1        0.0145
     12 C         138.9020  142.4882  164.4319 C.ar    1  UNL1        0.0479
     13 C         139.7192  143.3169  165.3780 C.ar    1  UNL1        0.0145
     14 C         140.2332  142.7135  166.6515 C.ar    1  UNL1        0.0013
     15 N         138.3879  143.0916  163.1584 N.pl3   1  UNL1       -0.3041
     16 C         137.9449  142.2040  162.0332 C.3     1  UNL1        0.1122
     17 C         138.3168  144.5825  163.0101 C.3     1  UNL1        0.1122
     18 C         142.7146  139.6151  167.3245 C.2     1  UNL1        0.3429
     19 O         143.5215  138.3514  167.3701 O.2     1  UNL1       -0.2448
     20 O         142.8982  140.5816  166.1923 O.3     1  UNL1       -0.4454
     21 C         142.2940  141.1193  163.7234 C.3     1  UNL1        0.0513
     22 C         142.6893  140.1284  164.7778 C.3     1  UNL1        0.2089
@<TRIPOS>BOND
     1    21    22    1
     2    22    20    1
     3    20    18    1
     4    18    19    2
     5    18     1    1
     6     1     2   ar
     7     2     9    1
     8     9    10   ar
     9    10    11   ar
    10    11    12   ar
    11    12    15    1
    12    15    16    1
    13    15    17    1
    14    12    13   ar
    15    13    14   ar
    16     2     3   ar
    17     3     4   ar
    18     4     5   ar
    19     5     6    1
    20     5     1   ar
    21    14     9   ar
    22     6     7    1
    23     6     8    1
@<TRIPOS>MOLECULE
*****
 22 23 0 0 0
SMALL
GASTEIGER

@<TRIPOS>ATOM
      1 C         140.9801  141.2091  169.1538 C.ar    1  UNL1        0.0952
      2 C         142.1691  141.2509  168.2402 C.ar    1  UNL1        0.0145
      3 C         143.2110  142.1235  168.8751 C.ar    1  UNL1        0.0369
      4 S         142.6659  142.6211  170.1809 S.2     1  UNL1       -0.0721
      5 C         141.2871  142.0560  170.3532 C.ar    1  UNL1        0.0782
      6 N         140.3754  142.2957  171.5200 N.pl3   1  UNL1       -0.3519
      7 H         140.6685  142.8703  172.2637 H       1  UNL1        0.1428
      8 H         139.4841  141.8783  171.5420 H       1  UNL1        0.1428
      9 C         142.2943  140.5440  166.9231 C.ar    1  UNL1        0.0008
     10 C         142.6874  139.0970  166.8829 C.ar    1  UNL1        0.0013
     11 C         142.8126  138.3902  165.5658 C.ar    1  UNL1        0.0145
     12 C         142.5445  139.1304  164.2890 C.ar    1  UNL1        0.0479
     13 C         142.1514  140.5774  164.3292 C.ar    1  UNL1        0.0145
     14 C         142.0263  141.2842  165.6463 C.ar    1  UNL1        0.0013
     15 N         142.6697  138.4236  162.9718 N.pl3   1  UNL1       -0.3041
     16 C         143.9516  138.5026  162.1971 C.3     1  UNL1        0.1122
     17 C         141.5128  137.6377  162.4295 C.3     1  UNL1        0.1122
     18 C         139.7075  140.4533  168.9106 C.2     1  UNL1        0.3429
     19 O         138.9920  139.8009  170.0563 O.2     1  UNL1       -0.2448
     20 O         139.1504  140.3497  167.5218 O.3     1  UNL1       -0.4454
     21 C         138.8554  138.5338  165.6873 C.3     1  UNL1        0.0513
     22 C         138.5365  139.0635  167.0539 C.3     1  UNL1        0.2089
@<TRIPOS>BOND
     1    21    22    1
     2    22    20    1
     3    20    18    1
     4    18    19    2
     5    18     1    1
     6     1     2   ar
     7     2     9    1
     8     9    10   ar
     9    10    11   ar
    10    11    12   ar
    11    12    15    1
    12    15    16    1
    13    15    17    1
    14    12    13   ar
    15    13    14   ar
    16     2     3   ar
    17     3     4   ar
    18     4     5   ar
    19     5     6    1
    20     5     1   ar
    21    14     9   ar
    22     6     7    1
    23     6     8    1
@<TRIPOS>MOLECULE
*****
 22 23 0 0 0
SMALL
GASTEIGER

@<TRIPOS>ATOM
      1 C         138.4386  140.0564  163.6660 C.ar    1  UNL1        0.0952
      2 C         139.1753  139.1227  164.5800 C.ar    1  UNL1        0.0145
      3 C         139.2446  137.7806  163.9139 C.ar    1  UNL1        0.0369
      4 S         138.5508  137.8848  162.5881 S.2     1  UNL1       -0.0721
      5 C         138.0526  139.2914  162.4349 C.ar    1  UNL1        0.0782
      6 N         137.3005  139.8370  161.2573 N.pl3   1  UNL1       -0.3519
      7 H         137.0931  139.2532  160.4922 H       1  UNL1        0.1428
      8 H         137.0143  140.7789  161.2496 H       1  UNL1        0.1428
      9 C         139.7430  139.4702  165.9243 C.ar    1  UNL1        0.0008
     10 C         138.8399  139.5648  167.1182 C.ar    1  UNL1        0.0013
     11 C         139.4076  139.9123  168.4624 C.ar    1  UNL1        0.0145
     12 C         140.8785  140.1652  168.6127 C.ar    1  UNL1        0.0479
     13 C         141.7816  140.0705  167.4188 C.ar    1  UNL1        0.0145
     14 C         141.2139  139.7231  166.0747 C.ar    1  UNL1        0.0013
     15 N         141.4462  140.5126  169.9570 N.pl3   1  UNL1       -0.3041
     16 C         142.7710  139.9504  170.3797 C.3     1  UNL1        0.1122
     17 C         140.6891  141.4224  170.8784 C.3     1  UNL1        0.1122
     18 C         138.1402  141.5015  163.9357 C.2     1  UNL1        0.3429
     19 O         137.0164  142.1829  163.2128 O.2     1  UNL1       -0.2448
     20 O         138.9657  142.2652  164.9282 O.3     1  UNL1       -0.4454
     21 C         138.5580  144.7979  165.3396 C.3     1  UNL1        0.0513
     22 C         139.3216  143.6981  164.6633 C.3     1  UNL1        0.2089
@<TRIPOS>BOND
     1    21    22    1
     2    22    20    1
     3    20    18    1
     4    18    19    2
     5    18     1    1
     6     1     2   ar
     7     2     9    1
     8     9    10   ar
     9    10    11   ar
    10    11    12   ar
    11    12    15    1
    12    15    16    1
    13    15    17    1
    14    12    13   ar
    15    13    14   ar
    16     2     3   ar
    17     3     4   ar
    18     4     5   ar
    19     5     6    1
    20     5     1   ar
    21    14     9   ar
    22     6     7    1
    23     6     8    1
@<TRIPOS>MOLECULE
*****
 22 23 0 0 0
SMALL
GASTEIGER

@<TRIPOS>ATOM
      1 C         141.4870  140.9128  169.0921 C.ar    1  UNL1        0.0952
      2 C         141.9308  141.7733  167.9464 C.ar    1  UNL1        0.0145
      3 C         143.1924  142.4744  168.3547 C.ar    1  UNL1        0.0369
      4 S         143.5284  142.0473  169.7528 S.2     1  UNL1       -0.0721
      5 C         142.4744  141.0822  170.2086 C.ar    1  UNL1        0.0782
      6 N         142.4177  140.4053  171.5460 N.pl3   1  UNL1       -0.3519
      7 H         143.1162  140.5817  172.2169 H       1  UNL1        0.1428
      8 H         141.6820  139.7846  171.7527 H       1  UNL1        0.1428
      9 C         141.2351  141.9088  166.6243 C.ar    1  UNL1        0.0008
     10 C         141.6796  141.0817  165.4546 C.ar    1  UNL1        0.0013
     11 C         140.9838  141.2172  164.1327 C.ar    1  UNL1        0.0145
     12 C         139.8436  142.1798  163.9805 C.ar    1  UNL1        0.0479
     13 C         139.3990  143.0069  165.1502 C.ar    1  UNL1        0.0145
     14 C         140.0948  142.8714  166.4721 C.ar    1  UNL1        0.0013
     15 N         139.1478  142.3153  162.6585 N.pl3   1  UNL1       -0.3041
     16 C         139.6576  141.5671  161.4625 C.3     1  UNL1        0.1122
     17 C         137.9423  143.1990  162.5325 C.3     1  UNL1        0.1122
     18 C         140.2697  140.0368  169.1171 C.2     1  UNL1        0.3429
     19 O         139.4603  139.9132  170.3739 O.2     1  UNL1       -0.2448
     20 O         139.8616  139.2845  167.8853 O.3     1  UNL1       -0.4454
     21 C         138.2007  139.3795  165.8898 C.3     1  UNL1        0.0513
     22 C         138.4585  139.3981  167.3673 C.3     1  UNL1        0.2089
@<TRIPOS>BOND
     1    21    22    1
     2    22    20    1
     3    20    18    1
     4    18    19    2
     5    18     1    1
     6     1     2   ar
     7     2     9    1
     8     9    10   ar
     9    10    11   ar
    10    11    12   ar
    11    12    15    1
    12    15    16    1
    13    15    17    1
    14    12    13   ar
    15    13    14   ar
    16     2     3   ar
    17     3     4   ar
    18     4     5   ar
    19     5     6    1
    20     5     1   ar
    21    14     9   ar
    22     6     7    1
    23     6     8    1
