@<TRIPOS>MOLECULE
*****
 25 28 0 0 0
SMALL
GASTEIGER

@<TRIPOS>ATOM
      1 C         139.9069  142.1579  165.9002 C.2     1  UNL1        0.0783
      2 N         140.3597  142.7007  167.2232 N.2     1  UNL1       -0.2444
      3 C         140.4758  141.9862  168.5371 C.ar    1  UNL1        0.0946
      4 C         140.9710  142.9019  169.6169 C.ar    1  UNL1        0.0204
      5 C         141.1584  142.3838  171.0121 C.ar    1  UNL1        0.0016
      6 C         140.8504  140.9500  171.3273 C.ar    1  UNL1        0.0014
      7 C         140.3552  140.0343  170.2474 C.ar    1  UNL1        0.0161
      8 C         140.1678  140.5524  168.8523 C.ar    1  UNL1        0.0662
      9 N         139.6677  139.4790  167.9316 N.pl3   1  UNL1       -0.3113
     10 C         139.3520  139.5742  166.4683 C.ar    1  UNL1        0.0498
     11 C         138.8756  138.2603  165.9237 C.ar    1  UNL1        0.0155
     12 C         138.5056  138.1385  164.4752 C.ar    1  UNL1        0.0127
     13 C         138.6121  139.3307  163.5712 C.ar    1  UNL1        0.0578
     14 CL        138.2421  139.2089  162.1227 Cl      1  UNL1       -0.0822
     15 C         139.0885  140.6447  164.1157 C.ar    1  UNL1        0.0141
     16 C         139.4585  140.7665  165.5643 C.ar    1  UNL1        0.0316
     17 H         139.5282  138.5951  168.3420 H       1  UNL1        0.1523
     18 C         142.3691  144.5025  161.9708 C.3     1  UNL1        0.0222
     19 C         141.1330  144.3081  162.7981 C.3     1  UNL1        0.0796
     20 C         141.1381  143.3302  163.9355 C.2     1  UNL1       -0.0132
     21 C         139.9020  143.1357  164.7628 C.2     1  UNL1       -0.0061
     22 C         138.6610  143.9192  164.4527 C.3     1  UNL1        0.0449
     23 C         138.6560  144.8971  163.3153 C.3     1  UNL1        0.0771
     24 N         139.8921  145.0915  162.4879 N.3     1  UNL1       -0.2688
     25 C         139.8871  146.0693  161.3506 C.3     1  UNL1        0.0899
@<TRIPOS>BOND
     1    19    18    1
     2    19    20    1
     3    20    21    2
     4    21     1    1
     5     1     2    2
     6     2     3    1
     7     3     4   ar
     8     4     5   ar
     9     5     6   ar
    10     6     7   ar
    11     7     8   ar
    12     8     9    1
    13     9    10    1
    14    10    11   ar
    15    11    12   ar
    16    12    13   ar
    17    13    14    1
    18    13    15   ar
    19    15    16   ar
    20    21    22    1
    21    22    23    1
    22    23    24    1
    23    24    25    1
    24    24    19    1
    25    16     1    1
    26     8     3   ar
    27    16    10   ar
    28     9    17    1
@<TRIPOS>MOLECULE
*****
 25 28 0 0 0
SMALL
GASTEIGER

@<TRIPOS>ATOM
      1 C         141.5490  141.2363  165.0994 C.2     1  UNL1        0.0783
      2 N         142.3936  140.1669  164.4724 N.2     1  UNL1       -0.2444
      3 C         142.6616  139.9198  163.0173 C.ar    1  UNL1        0.0946
      4 C         143.5661  138.7397  162.8194 C.ar    1  UNL1        0.0204
      5 C         143.9602  138.3209  161.4341 C.ar    1  UNL1        0.0016
      6 C         143.4498  139.0821  160.2466 C.ar    1  UNL1        0.0014
      7 C         142.5452  140.2622  160.4445 C.ar    1  UNL1        0.0161
      8 C         142.1511  140.6810  161.8299 C.ar    1  UNL1        0.0662
      9 N         141.2467  141.8774  161.8043 N.pl3   1  UNL1       -0.3113
     10 C         140.6292  142.6080  162.9597 C.ar    1  UNL1        0.0498
     11 C         139.7851  143.7570  162.4936 C.ar    1  UNL1        0.0155
     12 C         139.0756  144.6207  163.4939 C.ar    1  UNL1        0.0127
     13 C         139.2102  144.3354  164.9602 C.ar    1  UNL1        0.0578
     14 CL        138.5006  145.1991  165.9605 Cl      1  UNL1       -0.0822
     15 C         140.0543  143.1864  165.4264 C.ar    1  UNL1        0.0141
     16 C         140.7638  142.3227  164.4261 C.ar    1  UNL1        0.0316
     17 H         141.0296  142.2297  160.9110 H       1  UNL1        0.1523
     18 C         143.6450  142.3774  169.7150 C.3     1  UNL1        0.0222
     19 C         142.5286  141.7872  168.9055 C.3     1  UNL1        0.0796
     20 C         142.5971  141.8069  167.4072 C.2     1  UNL1       -0.0132
     21 C         141.4806  141.2167  166.5976 C.2     1  UNL1       -0.0061
     22 C         140.2958  140.6070  167.2864 C.3     1  UNL1        0.0449
     23 C         140.2273  140.5874  168.7847 C.3     1  UNL1        0.0771
     24 N         141.3438  141.1775  169.5943 N.3     1  UNL1       -0.2688
     25 C         141.2753  141.1579  171.0925 C.3     1  UNL1        0.0899
@<TRIPOS>BOND
     1    19    18    1
     2    19    20    1
     3    20    21    2
     4    21     1    1
     5     1     2    2
     6     2     3    1
     7     3     4   ar
     8     4     5   ar
     9     5     6   ar
    10     6     7   ar
    11     7     8   ar
    12     8     9    1
    13     9    10    1
    14    10    11   ar
    15    11    12   ar
    16    12    13   ar
    17    13    14    1
    18    13    15   ar
    19    15    16   ar
    20    21    22    1
    21    22    23    1
    22    23    24    1
    23    24    25    1
    24    24    19    1
    25    16     1    1
    26     8     3   ar
    27    16    10   ar
    28     9    17    1
@<TRIPOS>MOLECULE
*****
 25 28 0 0 0
SMALL
GASTEIGER

@<TRIPOS>ATOM
      1 C         141.4771  142.1618  165.8286 C.2     1  UNL1        0.0783
      2 N         141.3766  142.5755  167.2669 N.2     1  UNL1       -0.2444
      3 C         141.7293  141.7876  168.4936 C.ar    1  UNL1        0.0946
      4 C         141.4767  142.5774  169.7436 C.ar    1  UNL1        0.0204
      5 C         141.7643  141.9708  171.0849 C.ar    1  UNL1        0.0016
      6 C         142.3046  140.5744  171.1763 C.ar    1  UNL1        0.0014
      7 C         142.5572  139.7847  169.9264 C.ar    1  UNL1        0.0161
      8 C         142.2696  140.3913  168.5850 C.ar    1  UNL1        0.0662
      9 N         142.5906  139.4380  167.4722 N.pl3   1  UNL1       -0.3113
     10 C         142.4507  139.6456  165.9933 C.ar    1  UNL1        0.0498
     11 C         142.8857  138.4324  165.2259 C.ar    1  UNL1        0.0155
     12 C         142.8251  138.4313  163.7272 C.ar    1  UNL1        0.0127
     13 C         142.3296  139.6434  162.9957 C.ar    1  UNL1        0.0578
     14 CL        142.2691  139.6423  161.4969 Cl      1  UNL1       -0.0822
     15 C         141.8946  140.8567  163.7630 C.ar    1  UNL1        0.0141
     16 C         141.9551  140.8578  165.2618 C.ar    1  UNL1        0.0316
     17 H         142.9393  138.5600  167.7492 H       1  UNL1        0.1523
     18 C         137.7289  144.3724  162.9890 C.3     1  UNL1        0.0222
     19 C         139.1680  144.2929  163.4045 C.3     1  UNL1        0.0796
     20 C         139.6030  143.2671  164.4088 C.2     1  UNL1       -0.0132
     21 C         141.0421  143.1875  164.8243 C.2     1  UNL1       -0.0061
     22 C         142.0462  144.1337  164.2356 C.3     1  UNL1        0.0449
     23 C         141.6112  145.1595  163.2313 C.3     1  UNL1        0.0771
     24 N         140.1721  145.2390  162.8158 N.3     1  UNL1       -0.2688
     25 C         139.7371  146.2648  161.8115 C.3     1  UNL1        0.0899
@<TRIPOS>BOND
     1    19    18    1
     2    19    20    1
     3    20    21    2
     4    21     1    1
     5     1     2    2
     6     2     3    1
     7     3     4   ar
     8     4     5   ar
     9     5     6   ar
    10     6     7   ar
    11     7     8   ar
    12     8     9    1
    13     9    10    1
    14    10    11   ar
    15    11    12   ar
    16    12    13   ar
    17    13    14    1
    18    13    15   ar
    19    15    16   ar
    20    21    22    1
    21    22    23    1
    22    23    24    1
    23    24    25    1
    24    24    19    1
    25    16     1    1
    26     8     3   ar
    27    16    10   ar
    28     9    17    1
@<TRIPOS>MOLECULE
*****
 25 28 0 0 0
SMALL
GASTEIGER

@<TRIPOS>ATOM
      1 C         141.1056  140.7722  165.2771 C.2     1  UNL1        0.0783
      2 N         140.0434  139.8616  164.7360 N.2     1  UNL1       -0.2444
      3 C         139.7642  139.4947  163.3087 C.ar    1  UNL1        0.0946
      4 C         138.6048  138.5489  163.2027 C.ar    1  UNL1        0.0204
      5 C         138.1594  138.0561  161.8578 C.ar    1  UNL1        0.0016
      6 C         138.8734  138.5091  160.6189 C.ar    1  UNL1        0.0014
      7 C         140.0328  139.4549  160.7248 C.ar    1  UNL1        0.0161
      8 C         140.4781  139.9477  162.0697 C.ar    1  UNL1        0.0662
      9 N         141.6477  140.8796  161.9522 N.pl3   1  UNL1       -0.3113
     10 C         142.3922  141.5885  163.0445 C.ar    1  UNL1        0.0498
     11 C         143.5040  142.4307  162.4928 C.ar    1  UNL1        0.0155
     12 C         144.3746  143.2251  163.4207 C.ar    1  UNL1        0.0127
     13 C         144.1334  143.1773  164.9003 C.ar    1  UNL1        0.0578
     14 CL        145.0039  143.9717  165.8282 Cl      1  UNL1       -0.0822
     15 C         143.0215  142.3351  165.4521 C.ar    1  UNL1        0.0141
     16 C         142.1509  141.5407  164.5242 C.ar    1  UNL1        0.0316
     17 H         141.9693  141.0481  161.0371 H       1  UNL1        0.1523
     18 C         142.4699  139.0288  169.9780 C.3     1  UNL1        0.0222
     19 C         141.8072  140.0642  169.1184 C.3     1  UNL1        0.0796
     20 C         141.7878  139.9004  167.6275 C.2     1  UNL1       -0.0132
     21 C         141.1250  140.9359  166.7679 C.2     1  UNL1       -0.0061
     22 C         140.4818  142.1349  167.3993 C.3     1  UNL1        0.0449
     23 C         140.5013  142.2986  168.8902 C.3     1  UNL1        0.0771
     24 N         141.1640  141.2632  169.7498 N.3     1  UNL1       -0.2688
     25 C         141.1834  141.4268  171.2406 C.3     1  UNL1        0.0899
@<TRIPOS>BOND
     1    19    18    1
     2    19    20    1
     3    20    21    2
     4    21     1    1
     5     1     2    2
     6     2     3    1
     7     3     4   ar
     8     4     5   ar
     9     5     6   ar
    10     6     7   ar
    11     7     8   ar
    12     8     9    1
    13     9    10    1
    14    10    11   ar
    15    11    12   ar
    16    12    13   ar
    17    13    14    1
    18    13    15   ar
    19    15    16   ar
    20    21    22    1
    21    22    23    1
    22    23    24    1
    23    24    25    1
    24    24    19    1
    25    16     1    1
    26     8     3   ar
    27    16    10   ar
    28     9    17    1
@<TRIPOS>MOLECULE
*****
 25 28 0 0 0
SMALL
GASTEIGER

@<TRIPOS>ATOM
      1 C         141.0736  142.0570  165.0515 C.2     1  UNL1        0.0783
      2 N         140.3559  143.2092  164.4132 N.2     1  UNL1       -0.2444
      3 C         140.6371  143.8735  163.0980 C.ar    1  UNL1        0.0946
      4 C         139.6765  144.9949  162.8341 C.ar    1  UNL1        0.0204
      5 C         139.7843  145.7924  161.5683 C.ar    1  UNL1        0.0016
      6 C         140.8526  145.4684  160.5664 C.ar    1  UNL1        0.0014
      7 C         141.8132  144.3470  160.8303 C.ar    1  UNL1        0.0161
      8 C         141.7054  143.5495  162.0962 C.ar    1  UNL1        0.0662
      9 N         142.7564  142.4813  162.1621 N.pl3   1  UNL1       -0.3113
     10 C         142.9987  141.4732  163.2461 C.ar    1  UNL1        0.0498
     11 C         144.1587  140.5814  162.9159 C.ar    1  UNL1        0.0155
     12 C         144.5698  139.5008  163.8715 C.ar    1  UNL1        0.0127
     13 C         143.8209  139.3119  165.1573 C.ar    1  UNL1        0.0578
     14 CL        144.2320  138.2313  166.1130 Cl      1  UNL1       -0.0822
     15 C         142.6609  140.2038  165.4876 C.ar    1  UNL1        0.0141
     16 C         142.2498  141.2844  164.5320 C.ar    1  UNL1        0.0316
     17 H         143.3680  142.4358  161.3920 H       1  UNL1        0.1523
     18 C         140.4966  142.8730  170.1505 C.3     1  UNL1        0.0222
     19 C         140.2568  142.0275  168.9350 C.3     1  UNL1        0.0796
     20 C         140.7851  142.4650  167.6010 C.2     1  UNL1       -0.0132
     21 C         140.5453  141.6195  166.3854 C.2     1  UNL1       -0.0061
     22 C         139.7773  140.3365  166.5038 C.3     1  UNL1        0.0449
     23 C         139.2490  139.8989  167.8378 C.3     1  UNL1        0.0771
     24 N         139.4888  140.7445  169.0534 N.3     1  UNL1       -0.2688
     25 C         138.9605  140.3070  170.3873 C.3     1  UNL1        0.0899
@<TRIPOS>BOND
     1    19    18    1
     2    19    20    1
     3    20    21    2
     4    21     1    1
     5     1     2    2
     6     2     3    1
     7     3     4   ar
     8     4     5   ar
     9     5     6   ar
    10     6     7   ar
    11     7     8   ar
    12     8     9    1
    13     9    10    1
    14    10    11   ar
    15    11    12   ar
    16    12    13   ar
    17    13    14    1
    18    13    15   ar
    19    15    16   ar
    20    21    22    1
    21    22    23    1
    22    23    24    1
    23    24    25    1
    24    24    19    1
    25    16     1    1
    26     8     3   ar
    27    16    10   ar
    28     9    17    1
@<TRIPOS>MOLECULE
*****
 25 28 0 0 0
SMALL
GASTEIGER

@<TRIPOS>ATOM
      1 C         141.9154  140.6908  165.1427 C.2     1  UNL1        0.0783
      2 N         142.9619  141.4864  164.4205 N.2     1  UNL1       -0.2444
      3 C         143.2502  141.5350  162.9492 C.ar    1  UNL1        0.0946
      4 C         144.3876  142.4641  162.6440 C.ar    1  UNL1        0.0204
      5 C         144.8378  142.6580  161.2264 C.ar    1  UNL1        0.0016
      6 C         144.1507  141.9228  160.1140 C.ar    1  UNL1        0.0014
      7 C         143.0133  140.9938  160.4192 C.ar    1  UNL1        0.0161
      8 C         142.5631  140.7999  161.8368 C.ar    1  UNL1        0.0662
      9 N         141.4180  139.8346  161.9210 N.pl3   1  UNL1       -0.3113
     10 C         140.6772  139.3661  163.1382 C.ar    1  UNL1        0.0498
     11 C         139.5931  138.3934  162.7795 C.ar    1  UNL1        0.0155
     12 C         138.7304  137.8018  163.8545 C.ar    1  UNL1        0.0127
     13 C         138.9517  138.1828  165.2883 C.ar    1  UNL1        0.0578
     14 CL        138.0890  137.5912  166.3633 Cl      1  UNL1       -0.0822
     15 C         140.0359  139.1555  165.6471 C.ar    1  UNL1        0.0141
     16 C         140.8986  139.7471  164.5720 C.ar    1  UNL1        0.0316
     17 H         141.1122  139.4589  161.0639 H       1  UNL1        0.1523
     18 C         140.4107  143.3716  169.3318 C.3     1  UNL1        0.0222
     19 C         141.1287  142.2017  168.7272 C.3     1  UNL1        0.0796
     20 C         141.1630  142.0313  167.2372 C.2     1  UNL1       -0.0132
     21 C         141.8811  140.8613  166.6326 C.2     1  UNL1       -0.0061
     22 C         142.5649  139.8618  167.5178 C.3     1  UNL1        0.0449
     23 C         142.5306  140.0323  169.0077 C.3     1  UNL1        0.0771
     24 N         141.8125  141.2023  169.6124 N.3     1  UNL1       -0.2688
     25 C         141.7782  141.3728  171.1022 C.3     1  UNL1        0.0899
@<TRIPOS>BOND
     1    19    18    1
     2    19    20    1
     3    20    21    2
     4    21     1    1
     5     1     2    2
     6     2     3    1
     7     3     4   ar
     8     4     5   ar
     9     5     6   ar
    10     6     7   ar
    11     7     8   ar
    12     8     9    1
    13     9    10    1
    14    10    11   ar
    15    11    12   ar
    16    12    13   ar
    17    13    14    1
    18    13    15   ar
    19    15    16   ar
    20    21    22    1
    21    22    23    1
    22    23    24    1
    23    24    25    1
    24    24    19    1
    25    16     1    1
    26     8     3   ar
    27    16    10   ar
    28     9    17    1
@<TRIPOS>MOLECULE
*****
 25 28 0 0 0
SMALL
GASTEIGER

@<TRIPOS>ATOM
      1 C         140.6910  141.1472  165.5124 C.2     1  UNL1        0.0783
      2 N         140.1709  140.6543  166.8301 N.2     1  UNL1       -0.2444
      3 C         140.7697  140.8245  168.1949 C.ar    1  UNL1        0.0946
      4 C         139.9246  140.1734  169.2493 C.ar    1  UNL1        0.0204
      5 C         140.3464  140.2275  170.6877 C.ar    1  UNL1        0.0016
      6 C         141.6134  140.9328  171.0717 C.ar    1  UNL1        0.0014
      7 C         142.4585  141.5839  170.0173 C.ar    1  UNL1        0.0161
      8 C         142.0367  141.5297  168.5789 C.ar    1  UNL1        0.0662
      9 N         143.0177  142.2389  167.6930 N.pl3   1  UNL1       -0.3113
     10 C         142.9741  142.4180  166.2044 C.ar    1  UNL1        0.0498
     11 C         144.1585  143.1948  165.7109 C.ar    1  UNL1        0.0155
     12 C         144.3075  143.4858  164.2469 C.ar    1  UNL1        0.0127
     13 C         143.2721  142.9999  163.2765 C.ar    1  UNL1        0.0578
     14 CL        143.4212  143.2909  161.8126 Cl      1  UNL1       -0.0822
     15 C         142.0876  142.2231  163.7700 C.ar    1  UNL1        0.0141
     16 C         141.9386  141.9321  165.2339 C.ar    1  UNL1        0.0316
     17 H         143.7927  142.6398  168.1489 H       1  UNL1        0.1523
     18 C         139.5720  137.9776  161.5500 C.3     1  UNL1        0.0222
     19 C         139.2933  139.2259  162.3336 C.3     1  UNL1        0.0796
     20 C         140.1315  139.5623  163.5312 C.2     1  UNL1       -0.0132
     21 C         139.8529  140.8107  164.3148 C.2     1  UNL1       -0.0061
     22 C         138.7361  141.7225  163.9009 C.3     1  UNL1        0.0449
     23 C         137.8979  141.3861  162.7032 C.3     1  UNL1        0.0771
     24 N         138.1766  140.1377  161.9196 N.3     1  UNL1       -0.2688
     25 C         137.3384  139.8012  160.7220 C.3     1  UNL1        0.0899
@<TRIPOS>BOND
     1    19    18    1
     2    19    20    1
     3    20    21    2
     4    21     1    1
     5     1     2    2
     6     2     3    1
     7     3     4   ar
     8     4     5   ar
     9     5     6   ar
    10     6     7   ar
    11     7     8   ar
    12     8     9    1
    13     9    10    1
    14    10    11   ar
    15    11    12   ar
    16    12    13   ar
    17    13    14    1
    18    13    15   ar
    19    15    16   ar
    20    21    22    1
    21    22    23    1
    22    23    24    1
    23    24    25    1
    24    24    19    1
    25    16     1    1
    26     8     3   ar
    27    16    10   ar
    28     9    17    1
@<TRIPOS>MOLECULE
*****
 25 28 0 0 0
SMALL
GASTEIGER

@<TRIPOS>ATOM
      1 C         141.3131  141.7507  164.7923 C.2     1  UNL1        0.0783
      2 N         142.1339  142.2514  165.9437 N.2     1  UNL1       -0.2444
      3 C         142.3277  141.6292  167.2948 C.ar    1  UNL1        0.0946
      4 C         143.2318  142.4601  168.1562 C.ar    1  UNL1        0.0204
      5 C         143.5568  142.0142  169.5510 C.ar    1  UNL1        0.0016
      6 C         142.9776  140.7374  170.0843 C.ar    1  UNL1        0.0014
      7 C         142.0735  139.9066  169.2229 C.ar    1  UNL1        0.0161
      8 C         141.7485  140.3525  167.8281 C.ar    1  UNL1        0.0662
      9 N         140.8325  139.3827  167.1421 N.pl3   1  UNL1       -0.3113
     10 C         140.2695  139.4500  165.7535 C.ar    1  UNL1        0.0498
     11 C         139.3912  138.2700  165.4603 C.ar    1  UNL1        0.0155
     12 C         138.7268  138.1438  164.1214 C.ar    1  UNL1        0.0127
     13 C         138.9406  139.1976  163.0757 C.ar    1  UNL1        0.0578
     14 CL        138.2762  139.0714  161.7368 Cl      1  UNL1       -0.0822
     15 C         139.8190  140.3777  163.3688 C.ar    1  UNL1        0.0141
     16 C         140.4834  140.5040  164.7077 C.ar    1  UNL1        0.0316
     17 H         140.5656  138.5982  167.6737 H       1  UNL1        0.1523
     18 C         139.4205  145.7682  162.0947 C.3     1  UNL1        0.0222
     19 C         140.3772  144.6191  162.2143 C.3     1  UNL1        0.0796
     20 C         140.3668  143.7595  163.4436 C.2     1  UNL1       -0.0132
     21 C         141.3235  142.6103  163.5632 C.2     1  UNL1       -0.0061
     22 C         142.2905  142.3208  162.4536 C.3     1  UNL1        0.0449
     23 C         142.3008  143.1804  161.2244 C.3     1  UNL1        0.0771
     24 N         141.3441  144.3296  161.1048 N.3     1  UNL1       -0.2688
     25 C         141.3545  145.1892  159.8756 C.3     1  UNL1        0.0899
@<TRIPOS>BOND
     1    19    18    1
     2    19    20    1
     3    20    21    2
     4    21     1    1
     5     1     2    2
     6     2     3    1
     7     3     4   ar
     8     4     5   ar
     9     5     6   ar
    10     6     7   ar
    11     7     8   ar
    12     8     9    1
    13     9    10    1
    14    10    11   ar
    15    11    12   ar
    16    12    13   ar
    17    13    14    1
    18    13    15   ar
    19    15    16   ar
    20    21    22    1
    21    22    23    1
    22    23    24    1
    23    24    25    1
    24    24    19    1
    25    16     1    1
    26     8     3   ar
    27    16    10   ar
    28     9    17    1
@<TRIPOS>MOLECULE
*****
 25 28 0 0 0
SMALL
GASTEIGER

@<TRIPOS>ATOM
      1 C         141.0660  141.3134  165.4499 C.2     1  UNL1        0.0783
      2 N         141.2428  142.1837  166.6587 N.2     1  UNL1       -0.2444
      3 C         140.6429  142.0215  168.0239 C.ar    1  UNL1        0.0946
      4 C         141.0797  143.1189  168.9484 C.ar    1  UNL1        0.0204
      5 C         140.5915  143.1436  170.3665 C.ar    1  UNL1        0.0016
      6 C         139.6664  142.0709  170.8600 C.ar    1  UNL1        0.0014
      7 C         139.2296  140.9735  169.9355 C.ar    1  UNL1        0.0161
      8 C         139.7178  140.9488  168.5174 C.ar    1  UNL1        0.0662
      9 N         139.1643  139.7734  167.7676 N.pl3   1  UNL1       -0.3113
     10 C         139.3990  139.3804  166.3392 C.ar    1  UNL1        0.0498
     11 C         138.6515  138.1292  165.9851 C.ar    1  UNL1        0.0155
     12 C         138.7502  137.5633  164.5994 C.ar    1  UNL1        0.0127
     13 C         139.5965  138.2486  163.5679 C.ar    1  UNL1        0.0578
     14 CL        139.6952  137.6827  162.1823 Cl      1  UNL1       -0.0822
     15 C         140.3441  139.4999  163.9221 C.ar    1  UNL1        0.0141
     16 C         140.2454  140.0658  165.3077 C.ar    1  UNL1        0.0316
     17 H         138.5680  139.1817  168.2810 H       1  UNL1        0.1523
     18 C         145.5045  141.7119  162.7778 C.3     1  UNL1        0.0222
     19 C         144.0270  141.9474  162.8847 C.3     1  UNL1        0.0796
     20 C         143.2853  141.5126  164.1139 C.2     1  UNL1       -0.0132
     21 C         141.8077  141.7481  164.2207 C.2     1  UNL1       -0.0061
     22 C         141.0719  142.4183  163.0985 C.3     1  UNL1        0.0449
     23 C         141.8136  142.8530  161.8693 C.3     1  UNL1        0.0771
     24 N         143.2912  142.6175  161.7624 N.3     1  UNL1       -0.2688
     25 C         144.0329  143.0522  160.5333 C.3     1  UNL1        0.0899
@<TRIPOS>BOND
     1    19    18    1
     2    19    20    1
     3    20    21    2
     4    21     1    1
     5     1     2    2
     6     2     3    1
     7     3     4   ar
     8     4     5   ar
     9     5     6   ar
    10     6     7   ar
    11     7     8   ar
    12     8     9    1
    13     9    10    1
    14    10    11   ar
    15    11    12   ar
    16    12    13   ar
    17    13    14    1
    18    13    15   ar
    19    15    16   ar
    20    21    22    1
    21    22    23    1
    22    23    24    1
    23    24    25    1
    24    24    19    1
    25    16     1    1
    26     8     3   ar
    27    16    10   ar
    28     9    17    1
