@<TRIPOS>MOLECULE
*****
 23 25 0 0 0
SMALL
GASTEIGER

@<TRIPOS>ATOM
      1 C         140.6766  142.8775  165.9345 C.ar    1  UNL1        0.0026
      2 C         142.0771  142.8807  165.3971 C.ar    1  UNL1        0.0001
      3 C         142.3956  143.6314  164.1382 C.ar    1  UNL1       -0.0003
      4 C         141.3138  144.3790  163.4166 C.ar    1  UNL1       -0.0029
      5 C         139.9133  144.3758  163.9539 C.ar    1  UNL1       -0.0064
      6 C         139.5948  143.6251  165.2129 C.ar    1  UNL1       -0.0028
      7 C         139.7918  140.7400  167.1168 C.ar    1  UNL1        0.1409
      8 C         139.4733  139.9893  168.3757 C.ar    1  UNL1        0.0665
      9 C         139.7211  140.6255  169.7113 C.ar    1  UNL1        0.1432
     10 F         139.4025  139.8747  170.9703 F       1  UNL1       -0.2041
     11 C         140.2874  142.0123  169.7880 C.ar    1  UNL1        0.0298
     12 C         140.6059  142.7630  168.5291 C.ar    1  UNL1        0.0053
     13 C         140.3581  142.1268  167.1935 C.ar    1  UNL1        0.0341
     14 C         138.3795  139.1765  165.5966 C.3     1  UNL1        0.2525
     15 O         139.5440  140.1038  165.7812 O.3     1  UNL1       -0.4714
     16 C         138.8315  145.1234  163.2324 C.3     1  UNL1        0.0956
     17 N         137.6552  144.3823  162.6692 N.3     1  UNL1       -0.2948
     18 H         137.3316  144.9140  161.8611 H       1  UNL1        0.1235
     19 C         137.8108  142.9603  162.2179 C.3     1  UNL1        0.0542
     20 C         137.3896  141.7411  162.9836 C.3     1  UNL1        0.0157
     21 C         137.7333  140.5351  162.1606 C.3     1  UNL1        0.0014
     22 C         138.3669  141.0089  160.8862 C.3     1  UNL1        0.0014
     23 C         138.4148  142.5077  160.9216 C.3     1  UNL1        0.0157
@<TRIPOS>BOND
     1    14    15    1
     2    15     7    1
     3     7     8   ar
     4     8     9   ar
     5     9    10    1
     6     9    11   ar
     7    11    12   ar
     8    12    13   ar
     9    13     1    1
    10     1     2   ar
    11     2     3   ar
    12     3     4   ar
    13     4     5   ar
    14     5    16    1
    15    16    17    1
    16    17    19    1
    17    19    20    1
    18    20    21    1
    19    21    22    1
    20    22    23    1
    21     5     6   ar
    22    13     7   ar
    23     6     1   ar
    24    23    19    1
    25    17    18    1
@<TRIPOS>MOLECULE
*****
 23 25 0 0 0
SMALL
GASTEIGER

@<TRIPOS>ATOM
      1 C         139.7042  139.0644  165.4327 C.ar    1  UNL1        0.0026
      2 C         140.0974  137.7083  164.9262 C.ar    1  UNL1        0.0001
      3 C         139.6487  137.2557  163.5684 C.ar    1  UNL1       -0.0003
      4 C         138.8068  138.1593  162.7169 C.ar    1  UNL1       -0.0029
      5 C         138.4136  139.5153  163.2233 C.ar    1  UNL1       -0.0064
      6 C         138.8624  139.9679  164.5813 C.ar    1  UNL1       -0.0028
      7 C         141.6146  139.6958  167.0764 C.ar    1  UNL1        0.1409
      8 C         142.0633  140.1483  168.4343 C.ar    1  UNL1        0.0665
      9 C         141.0504  140.4220  169.5063 C.ar    1  UNL1        0.1432
     10 F         141.4991  140.8745  170.8642 F       1  UNL1       -0.2041
     11 C         139.5888  140.2431  169.2205 C.ar    1  UNL1        0.0298
     12 C         139.1401  139.7906  167.8626 C.ar    1  UNL1        0.0053
     13 C         140.1530  139.5169  166.7906 C.ar    1  UNL1        0.0341
     14 C         143.6255  138.3163  166.1803 C.3     1  UNL1        0.2525
     15 O         142.6275  139.4222  166.0044 O.3     1  UNL1       -0.4714
     16 C         137.5718  140.4188  162.3720 C.3     1  UNL1        0.0956
     17 N         136.8687  141.5910  162.9898 N.3     1  UNL1       -0.2948
     18 H         136.4646  141.2630  163.8670 H       1  UNL1        0.1235
     19 C         137.6329  142.8424  163.3063 C.3     1  UNL1        0.0542
     20 C         137.8186  143.4412  164.6690 C.3     1  UNL1        0.0157
     21 C         138.6460  144.6835  164.5206 C.3     1  UNL1        0.0014
     22 C         138.9718  144.8524  163.0661 C.3     1  UNL1        0.0014
     23 C         138.3456  143.7145  162.3156 C.3     1  UNL1        0.0157
@<TRIPOS>BOND
     1    14    15    1
     2    15     7    1
     3     7     8   ar
     4     8     9   ar
     5     9    10    1
     6     9    11   ar
     7    11    12   ar
     8    12    13   ar
     9    13     1    1
    10     1     2   ar
    11     2     3   ar
    12     3     4   ar
    13     4     5   ar
    14     5    16    1
    15    16    17    1
    16    17    19    1
    17    19    20    1
    18    20    21    1
    19    21    22    1
    20    22    23    1
    21     5     6   ar
    22    13     7   ar
    23     6     1   ar
    24    23    19    1
    25    17    18    1
@<TRIPOS>MOLECULE
*****
 23 25 0 0 0
SMALL
GASTEIGER

@<TRIPOS>ATOM
      1 C         140.7670  141.8155  166.4977 C.ar    1  UNL1        0.0026
      2 C         140.8325  141.9080  167.9934 C.ar    1  UNL1        0.0001
      3 C         140.0155  140.9766  168.8390 C.ar    1  UNL1       -0.0003
      4 C         139.1330  139.9526  168.1888 C.ar    1  UNL1       -0.0029
      5 C         139.0675  139.8601  166.6931 C.ar    1  UNL1       -0.0064
      6 C         139.8845  140.7916  165.8476 C.ar    1  UNL1       -0.0028
      7 C         140.9035  143.7627  164.7831 C.ar    1  UNL1        0.1409
      8 C         141.7206  144.6941  163.9376 C.ar    1  UNL1        0.0665
      9 C         143.2180  144.6099  163.9612 C.ar    1  UNL1        0.1432
     10 F         144.0350  145.5414  163.1156 F       1  UNL1       -0.2041
     11 C         143.8984  143.5942  164.8303 C.ar    1  UNL1        0.0298
     12 C         143.0814  142.6628  165.6758 C.ar    1  UNL1        0.0053
     13 C         141.5840  142.7470  165.6522 C.ar    1  UNL1        0.0341
     14 C         138.7032  144.9232  165.5325 C.3     1  UNL1        0.2525
     15 O         139.4061  143.8470  164.7595 O.3     1  UNL1       -0.4714
     16 C         138.1850  138.8361  166.0429 C.3     1  UNL1        0.0956
     17 N         138.7835  137.5863  165.4689 N.3     1  UNL1       -0.2948
     18 H         138.0159  136.9290  165.3305 H       1  UNL1        0.1235
     19 C         139.5431  137.6434  164.1766 C.3     1  UNL1        0.0542
     20 C         138.9795  138.0203  162.8386 C.3     1  UNL1        0.0157
     21 C         140.0876  137.9435  161.8305 C.3     1  UNL1        0.0014
     22 C         141.3361  137.5191  162.5456 C.3     1  UNL1        0.0014
     23 C         140.9995  137.3336  163.9955 C.3     1  UNL1        0.0157
@<TRIPOS>BOND
     1    14    15    1
     2    15     7    1
     3     7     8   ar
     4     8     9   ar
     5     9    10    1
     6     9    11   ar
     7    11    12   ar
     8    12    13   ar
     9    13     1    1
    10     1     2   ar
    11     2     3   ar
    12     3     4   ar
    13     4     5   ar
    14     5    16    1
    15    16    17    1
    16    17    19    1
    17    19    20    1
    18    20    21    1
    19    21    22    1
    20    22    23    1
    21     5     6   ar
    22    13     7   ar
    23     6     1   ar
    24    23    19    1
    25    17    18    1
@<TRIPOS>MOLECULE
*****
 23 25 0 0 0
SMALL
GASTEIGER

@<TRIPOS>ATOM
      1 C         141.1133  140.2951  165.0522 C.ar    1  UNL1        0.0026
      2 C         140.7818  139.8594  166.4487 C.ar    1  UNL1        0.0001
      3 C         139.3706  139.4985  166.8067 C.ar    1  UNL1       -0.0003
      4 C         138.2908  139.5733  165.7681 C.ar    1  UNL1       -0.0029
      5 C         138.6223  140.0090  164.3716 C.ar    1  UNL1       -0.0064
      6 C         140.0336  140.3699  164.0136 C.ar    1  UNL1       -0.0028
      7 C         143.3750  139.6873  163.9273 C.ar    1  UNL1        0.1409
      8 C         144.7862  140.0483  163.5694 C.ar    1  UNL1        0.0665
      9 C         145.3470  141.3780  163.9784 C.ar    1  UNL1        0.1432
     10 F         146.7583  141.7390  163.6204 F       1  UNL1       -0.2041
     11 C         144.4965  142.3468  164.7453 C.ar    1  UNL1        0.0298
     12 C         143.0853  141.9859  165.1032 C.ar    1  UNL1        0.0053
     13 C         142.5246  140.6561  164.6942 C.ar    1  UNL1        0.0341
     14 C         142.8635  137.9329  162.0806 C.3     1  UNL1        0.2525
     15 O         142.8142  138.3575  163.5184 O.3     1  UNL1       -0.4714
     16 C         137.5426  140.0837  163.3331 C.3     1  UNL1        0.0956
     17 N         136.8393  141.3831  163.0746 N.3     1  UNL1       -0.2948
     18 H         136.0011  141.3850  163.6558 H       1  UNL1        0.1235
     19 C         137.5455  142.6818  163.3291 C.3     1  UNL1        0.0542
     20 C         138.1756  143.5612  162.2900 C.3     1  UNL1        0.0157
     21 C         138.7652  144.7519  162.9860 C.3     1  UNL1        0.0014
     22 C         138.4995  144.6085  164.4554 C.3     1  UNL1        0.0014
     23 C         137.7457  143.3291  164.6674 C.3     1  UNL1        0.0157
@<TRIPOS>BOND
     1    14    15    1
     2    15     7    1
     3     7     8   ar
     4     8     9   ar
     5     9    10    1
     6     9    11   ar
     7    11    12   ar
     8    12    13   ar
     9    13     1    1
    10     1     2   ar
    11     2     3   ar
    12     3     4   ar
    13     4     5   ar
    14     5    16    1
    15    16    17    1
    16    17    19    1
    17    19    20    1
    18    20    21    1
    19    21    22    1
    20    22    23    1
    21     5     6   ar
    22    13     7   ar
    23     6     1   ar
    24    23    19    1
    25    17    18    1
@<TRIPOS>MOLECULE
*****
 23 25 0 0 0
SMALL
GASTEIGER

@<TRIPOS>ATOM
      1 C         142.7117  139.6268  165.5491 C.ar    1  UNL1        0.0026
      2 C         142.3104  138.5649  164.5687 C.ar    1  UNL1        0.0001
      3 C         143.0072  138.4650  163.2441 C.ar    1  UNL1       -0.0003
      4 C         144.1053  139.4272  162.8999 C.ar    1  UNL1       -0.0029
      5 C         144.5067  140.4891  163.8803 C.ar    1  UNL1       -0.0064
      6 C         143.8098  140.5889  165.2049 C.ar    1  UNL1       -0.0028
      7 C         140.5879  140.1843  166.9378 C.ar    1  UNL1        0.1409
      8 C         139.8911  140.2841  168.2624 C.ar    1  UNL1        0.0665
      9 C         140.6213  139.9262  169.5228 C.ar    1  UNL1        0.1432
     10 F         139.9245  140.0260  170.8474 F       1  UNL1       -0.2041
     11 C         142.0483  139.4685  169.4587 C.ar    1  UNL1        0.0298
     12 C         142.7451  139.3687  168.1341 C.ar    1  UNL1        0.0053
     13 C         142.0149  139.7266  166.8737 C.ar    1  UNL1        0.0341
     14 C         138.6876  139.7179  165.2287 C.3     1  UNL1        0.2525
     15 O         139.8576  140.5422  165.6774 O.3     1  UNL1       -0.4714
     16 C         145.6048  141.4512  163.5362 C.3     1  UNL1        0.0956
     17 N         145.3418  142.5800  162.5841 N.3     1  UNL1       -0.2948
     18 H         145.2143  142.1637  161.6617 H       1  UNL1        0.1235
     19 C         144.1757  143.4961  162.8106 C.3     1  UNL1        0.0542
     20 C         143.9482  144.3507  164.0222 C.3     1  UNL1        0.0157
     21 C         142.6644  145.1011  163.8258 C.3     1  UNL1        0.0014
     22 C         142.0983  144.7102  162.4928 C.3     1  UNL1        0.0014
     23 C         143.0324  143.7182  161.8654 C.3     1  UNL1        0.0157
@<TRIPOS>BOND
     1    14    15    1
     2    15     7    1
     3     7     8   ar
     4     8     9   ar
     5     9    10    1
     6     9    11   ar
     7    11    12   ar
     8    12    13   ar
     9    13     1    1
    10     1     2   ar
    11     2     3   ar
    12     3     4   ar
    13     4     5   ar
    14     5    16    1
    15    16    17    1
    16    17    19    1
    17    19    20    1
    18    20    21    1
    19    21    22    1
    20    22    23    1
    21     5     6   ar
    22    13     7   ar
    23     6     1   ar
    24    23    19    1
    25    17    18    1
@<TRIPOS>MOLECULE
*****
 23 25 0 0 0
SMALL
GASTEIGER

@<TRIPOS>ATOM
      1 C         139.5026  140.0226  165.9301 C.ar    1  UNL1        0.0026
      2 C         138.3690  140.4533  165.0473 C.ar    1  UNL1        0.0001
      3 C         138.1874  139.8226  163.6985 C.ar    1  UNL1       -0.0003
      4 C         139.1395  138.7612  163.2325 C.ar    1  UNL1       -0.0029
      5 C         140.2731  138.3305  164.1154 C.ar    1  UNL1       -0.0064
      6 C         140.4546  138.9613  165.4642 C.ar    1  UNL1       -0.0028
      7 C         140.3842  141.9743  167.4011 C.ar    1  UNL1        0.1409
      8 C         140.5657  142.6049  168.7499 C.ar    1  UNL1        0.0665
      9 C         140.0472  141.9146  169.9766 C.ar    1  UNL1        0.1432
     10 F         140.2288  142.5454  171.3254 F       1  UNL1       -0.2041
     11 C         139.3472  140.5937  169.8544 C.ar    1  UNL1        0.0298
     12 C         139.1656  139.9630  168.5056 C.ar    1  UNL1        0.0053
     13 C         139.6842  140.6533  167.2790 C.ar    1  UNL1        0.0341
     14 C         142.3169  142.4391  165.7282 C.3     1  UNL1        0.2525
     15 O         140.9027  142.6646  166.1745 O.3     1  UNL1       -0.4714
     16 C         141.2251  137.2692  163.6495 C.3     1  UNL1        0.0956
     17 N         142.3113  137.6121  162.6735 N.3     1  UNL1       -0.2948
     18 H         141.8513  137.8864  161.8054 H       1  UNL1        0.1235
     19 C         143.2995  138.6924  163.0000 C.3     1  UNL1        0.0542
     20 C         143.9286  138.9361  164.3397 C.3     1  UNL1        0.0157
     21 C         144.8499  140.1130  164.2120 C.3     1  UNL1        0.0014
     22 C         144.7901  140.5965  162.7933 C.3     1  UNL1        0.0014
     23 C         143.8319  139.7186  162.0443 C.3     1  UNL1        0.0157
@<TRIPOS>BOND
     1    14    15    1
     2    15     7    1
     3     7     8   ar
     4     8     9   ar
     5     9    10    1
     6     9    11   ar
     7    11    12   ar
     8    12    13   ar
     9    13     1    1
    10     1     2   ar
    11     2     3   ar
    12     3     4   ar
    13     4     5   ar
    14     5    16    1
    15    16    17    1
    16    17    19    1
    17    19    20    1
    18    20    21    1
    19    21    22    1
    20    22    23    1
    21     5     6   ar
    22    13     7   ar
    23     6     1   ar
    24    23    19    1
    25    17    18    1
@<TRIPOS>MOLECULE
*****
 23 25 0 0 0
SMALL
GASTEIGER

@<TRIPOS>ATOM
      1 C         140.1856  141.3618  165.8138 C.ar    1  UNL1        0.0026
      2 C         139.3829  140.4448  164.9394 C.ar    1  UNL1        0.0001
      3 C         138.5219  139.3830  165.5568 C.ar    1  UNL1       -0.0003
      4 C         138.4636  139.2382  167.0487 C.ar    1  UNL1       -0.0029
      5 C         139.2663  140.1553  167.9231 C.ar    1  UNL1       -0.0064
      6 C         140.1273  141.2172  167.3056 C.ar    1  UNL1       -0.0028
      7 C         140.4209  143.6717  164.6479 C.ar    1  UNL1        0.1409
      8 C         141.2819  144.7334  164.0304 C.ar    1  UNL1        0.0665
      9 C         142.7687  144.5471  163.9613 C.ar    1  UNL1        0.1432
     10 F         143.6297  145.6089  163.3438 F       1  UNL1       -0.2041
     11 C         143.3944  143.2991  164.5097 C.ar    1  UNL1        0.0298
     12 C         142.5334  142.2373  165.1271 C.ar    1  UNL1        0.0053
     13 C         141.0466  142.4237  165.1962 C.ar    1  UNL1        0.0341
     14 C         138.1675  144.2356  163.4843 C.3     1  UNL1        0.2525
     15 O         138.9341  143.8580  164.7170 O.3     1  UNL1       -0.4714
     16 C         139.2080  140.0107  169.4149 C.3     1  UNL1        0.0956
     17 N         140.4717  139.8171  170.1996 N.3     1  UNL1       -0.2948
     18 H         140.9012  138.9571  169.8585 H       1  UNL1        0.1235
     19 C         141.5377  140.8722  170.1768 C.3     1  UNL1        0.0542
     20 C         141.3995  142.2763  170.6861 C.3     1  UNL1        0.0157
     21 C         142.7054  142.9803  170.4649 C.3     1  UNL1        0.0014
     22 C         143.6507  142.0112  169.8189 C.3     1  UNL1        0.0014
     23 C         142.9291  140.7084  169.6408 C.3     1  UNL1        0.0157
@<TRIPOS>BOND
     1    14    15    1
     2    15     7    1
     3     7     8   ar
     4     8     9   ar
     5     9    10    1
     6     9    11   ar
     7    11    12   ar
     8    12    13   ar
     9    13     1    1
    10     1     2   ar
    11     2     3   ar
    12     3     4   ar
    13     4     5   ar
    14     5    16    1
    15    16    17    1
    16    17    19    1
    17    19    20    1
    18    20    21    1
    19    21    22    1
    20    22    23    1
    21     5     6   ar
    22    13     7   ar
    23     6     1   ar
    24    23    19    1
    25    17    18    1
@<TRIPOS>MOLECULE
*****
 23 25 0 0 0
SMALL
GASTEIGER

@<TRIPOS>ATOM
      1 C         139.5595  140.9809  165.9759 C.ar    1  UNL1        0.0026
      2 C         138.7433  140.0244  165.1579 C.ar    1  UNL1        0.0001
      3 C         137.8937  140.5357  164.0324 C.ar    1  UNL1       -0.0003
      4 C         137.8602  142.0035  163.7249 C.ar    1  UNL1       -0.0029
      5 C         138.6764  142.9600  164.5428 C.ar    1  UNL1       -0.0064
      6 C         139.5261  142.4486  165.6683 C.ar    1  UNL1       -0.0028
      7 C         141.7952  139.9667  166.8261 C.ar    1  UNL1        0.1409
      8 C         142.6447  139.4553  167.9516 C.ar    1  UNL1        0.0665
      9 C         142.1082  139.4468  169.3523 C.ar    1  UNL1        0.1432
     10 F         142.9578  138.9355  170.4779 F       1  UNL1       -0.2041
     11 C         140.7221  139.9497  169.6276 C.ar    1  UNL1        0.0298
     12 C         139.8725  140.4610  168.5021 C.ar    1  UNL1        0.0053
     13 C         140.4091  140.4695  167.1014 C.ar    1  UNL1        0.0341
     14 C         143.4715  139.0737  165.0534 C.3     1  UNL1        0.2525
     15 O         142.3318  139.9752  165.4254 O.3     1  UNL1       -0.4714
     16 C         138.6430  144.4277  164.2353 C.3     1  UNL1        0.0956
     17 N         139.8913  145.2494  164.3637 N.3     1  UNL1       -0.2948
     18 H         140.1767  145.2006  165.3417 H       1  UNL1        0.1235
     19 C         141.1001  144.9106  163.5425 C.3     1  UNL1        0.0542
     20 C         141.0921  144.3084  162.1687 C.3     1  UNL1        0.0157
     21 C         142.5160  144.1401  161.7281 C.3     1  UNL1        0.0014
     22 C         143.4040  144.6383  162.8297 C.3     1  UNL1        0.0014
     23 C         142.5289  145.1145  163.9510 C.3     1  UNL1        0.0157
@<TRIPOS>BOND
     1    14    15    1
     2    15     7    1
     3     7     8   ar
     4     8     9   ar
     5     9    10    1
     6     9    11   ar
     7    11    12   ar
     8    12    13   ar
     9    13     1    1
    10     1     2   ar
    11     2     3   ar
    12     3     4   ar
    13     4     5   ar
    14     5    16    1
    15    16    17    1
    16    17    19    1
    17    19    20    1
    18    20    21    1
    19    21    22    1
    20    22    23    1
    21     5     6   ar
    22    13     7   ar
    23     6     1   ar
    24    23    19    1
    25    17    18    1
@<TRIPOS>MOLECULE
*****
 23 25 0 0 0
SMALL
GASTEIGER

@<TRIPOS>ATOM
      1 C         143.4201  141.9160  165.8758 C.ar    1  UNL1        0.0026
      2 C         144.3245  142.9346  165.2477 C.ar    1  UNL1        0.0001
      3 C         145.1715  142.5595  164.0679 C.ar    1  UNL1       -0.0003
      4 C         145.1141  141.1658  163.5162 C.ar    1  UNL1       -0.0029
      5 C         144.2097  140.1472  164.1443 C.ar    1  UNL1       -0.0064
      6 C         143.3626  140.5224  165.3241 C.ar    1  UNL1       -0.0028
      7 C         141.1224  142.6206  166.8629 C.ar    1  UNL1        0.1409
      8 C         140.2755  142.9957  168.0427 C.ar    1  UNL1        0.0665
      9 C         140.8791  143.0414  169.4151 C.ar    1  UNL1        0.1432
     10 F         140.0321  143.4166  170.5949 F       1  UNL1       -0.2041
     11 C         142.3298  142.7121  169.6077 C.ar    1  UNL1        0.0298
     12 C         143.1767  142.3369  168.4280 C.ar    1  UNL1        0.0053
     13 C         142.5730  142.2912  167.0556 C.ar    1  UNL1        0.0341
     14 C         140.3394  143.8415  164.7075 C.3     1  UNL1        0.2525
     15 O         140.5187  142.5748  165.4905 O.3     1  UNL1       -0.4714
     16 C         144.1522  138.7536  163.5926 C.3     1  UNL1        0.0956
     17 N         143.0588  138.3682  162.6409 N.3     1  UNL1       -0.2948
     18 H         143.3914  137.5539  162.1244 H       1  UNL1        0.1235
     19 C         141.6963  138.0222  163.1642 C.3     1  UNL1        0.0542
     20 C         140.4156  138.0632  162.3843 C.3     1  UNL1        0.0157
     21 C         139.3031  137.6408  163.2974 C.3     1  UNL1        0.0014
     22 C         139.8961  137.3387  164.6417 C.3     1  UNL1        0.0014
     23 C         141.3752  137.5744  164.5594 C.3     1  UNL1        0.0157
@<TRIPOS>BOND
     1    14    15    1
     2    15     7    1
     3     7     8   ar
     4     8     9   ar
     5     9    10    1
     6     9    11   ar
     7    11    12   ar
     8    12    13   ar
     9    13     1    1
    10     1     2   ar
    11     2     3   ar
    12     3     4   ar
    13     4     5   ar
    14     5    16    1
    15    16    17    1
    16    17    19    1
    17    19    20    1
    18    20    21    1
    19    21    22    1
    20    22    23    1
    21     5     6   ar
    22    13     7   ar
    23     6     1   ar
    24    23    19    1
    25    17    18    1
