@<TRIPOS>MOLECULE
*****
 44 49 0 0 0
SMALL
GASTEIGER

@<TRIPOS>ATOM
      1 N         138.5672  142.2251  158.0664 N.am    1  UNL1       -0.2222
      2 C         138.4985  141.5687  159.4135 C.2     1  UNL1        0.3220
      3 O         137.8713  140.2402  159.7160 O.2     1  UNL1       -0.2512
      4 N         139.1673  142.4742  160.4050 N.am    1  UNL1       -0.1892
      5 C         139.6492  143.6902  159.6707 C.2     1  UNL1        0.2529
      6 O         140.3746  144.8555  160.2754 O.2     1  UNL1       -0.2724
      7 C         139.2783  143.5363  158.2254 C.3     1  UNL1        0.1391
      8 C         138.8439  143.2443  156.8197 C.3     1  UNL1        0.0449
      9 C         139.1334  144.2286  155.7255 C.3     1  UNL1        0.0746
     10 N         139.8572  145.5049  156.0370 N.3     1  UNL1       -0.2676
     11 C         140.2916  145.7969  157.4427 C.3     1  UNL1        0.0746
     12 C         140.0021  144.8126  158.5369 C.3     1  UNL1        0.0449
     13 C         136.0462  141.3681  155.1237 C.ar    1  UNL1        0.2293
     14 C         136.5927  141.9251  156.4047 C.ar    1  UNL1        0.0924
     15 C         138.0206  141.6681  156.7854 C.ar    1  UNL1        0.1453
     16 N         138.9020  140.8542  155.8851 N.ar    1  UNL1       -0.2084
     17 C         138.3556  140.2972  154.6041 C.ar    1  UNL1        0.2027
     18 N         136.9276  140.5542  154.2234 N.ar    1  UNL1       -0.1892
     19 C         133.5086  140.9573  155.4996 C.3     1  UNL1        0.2542
     20 O         134.6183  141.6251  154.7429 O.3     1  UNL1       -0.4560
     21 C         139.3262  142.2102  161.8729 C.ar    1  UNL1        0.0813
     22 C         138.3205  142.7511  162.8455 C.ar    1  UNL1        0.0185
     23 C         138.4794  142.4870  164.3135 C.ar    1  UNL1        0.0204
     24 C         139.6440  141.6819  164.8089 C.ar    1  UNL1        0.0811
     25 N         140.6498  141.1409  163.8363 N.ar    1  UNL1       -0.2425
     26 C         140.4908  141.4050  162.3683 C.ar    1  UNL1        0.1141
     27 C         139.8029  141.4178  166.2769 C.ar    1  UNL1        0.0137
     28 C         140.4898  142.4255  167.1502 C.ar    1  UNL1        0.0012
     29 C         140.6487  142.1614  168.6182 C.ar    1  UNL1        0.0012
     30 C         140.1207  140.8895  169.2128 C.ar    1  UNL1        0.0137
     31 C         139.4338  139.8818  168.3395 C.ar    1  UNL1       -0.0031
     32 C         139.2749  140.1459  166.8716 C.ar    1  UNL1       -0.0204
     33 C         138.5881  139.1381  165.9983 C.3     1  UNL1        0.0311
     34 C         140.2796  140.6254  170.6808 C.2     1  UNL1        0.0729
     35 O         141.1636  141.5087  171.5104 O.co2   1  UNL1       -0.5446
     36 O         139.5545  139.4778  171.3192 O.co2   1  UNL1       -0.5446
     37 C         140.1466  146.4893  154.9427 C.3     1  UNL1        0.1183
     38 C         139.6466  147.8993  155.0508 C.ar    1  UNL1        0.0712
     39 N         138.8098  148.3104  156.2259 N.ar    1  UNL1       -0.2471
     40 C         138.3097  149.7205  156.3338 C.ar    1  UNL1        0.0985
     41 C         138.6465  150.7195  155.2668 C.ar    1  UNL1        0.0203
     42 C         139.4832  150.3084  154.0917 C.ar    1  UNL1       -0.0015
     43 C         139.9833  148.8984  153.9837 C.ar    1  UNL1       -0.0069
     44 C         140.8200  148.4873  152.8086 C.3     1  UNL1        0.0323
@<TRIPOS>UNITY_ATOM_ATTR
35 1
charge -1
@<TRIPOS>BOND
     1    19    20    1
     2    20    13    1
     3    13    14   ar
     4    14    15   ar
     5    15     1    1
     6     1     2   am
     7     2     3    2
     8     2     4   am
     9     4    21    1
    10    21    22   ar
    11    22    23   ar
    12    23    24   ar
    13    24    27    1
    14    27    28   ar
    15    28    29   ar
    16    29    30   ar
    17    30    34    1
    18    34    35   ar
    19    34    36   ar
    20    30    31   ar
    21    31    32   ar
    22    32    33    1
    23    24    25   ar
    24    25    26   ar
    25     4     5   am
    26     5     6    2
    27     5     7    1
    28     7     8    1
    29     8     9    1
    30     9    10    1
    31    10    37    1
    32    37    38    1
    33    38    39   ar
    34    39    40   ar
    35    40    41   ar
    36    41    42   ar
    37    42    43   ar
    38    43    44    1
    39    10    11    1
    40    11    12    1
    41    15    16   ar
    42    16    17   ar
    43    17    18   ar
    44    18    13   ar
    45     7     1    1
    46    43    38   ar
    47    26    21   ar
    48    12     7    1
    49    32    27   ar
@<TRIPOS>MOLECULE
*****
 44 49 0 0 0
SMALL
GASTEIGER

@<TRIPOS>ATOM
      1 N         143.6659  140.9805  158.5035 N.am    1  UNL1       -0.2222
      2 C         143.4414  141.6117  159.8457 C.2     1  UNL1        0.3220
      3 O         143.7287  143.0386  160.2081 O.2     1  UNL1       -0.2512
      4 N         142.8793  140.5653  160.7618 N.am    1  UNL1       -0.1892
      5 C         142.7563  139.2875  159.9859 C.2     1  UNL1        0.2529
      6 O         142.2381  137.9823  160.5130 O.2     1  UNL1       -0.2724
      7 C         143.2424  139.5441  158.5902 C.3     1  UNL1        0.1391
      8 C         143.7559  139.9484  157.2401 C.3     1  UNL1        0.0449
      9 C         143.8092  138.9448  156.1266 C.3     1  UNL1        0.0746
     10 N         143.3490  137.5369  156.3632 N.3     1  UNL1       -0.2676
     11 C         142.8355  137.1326  157.7133 C.3     1  UNL1        0.0746
     12 C         142.7822  138.1362  158.8268 C.3     1  UNL1        0.0449
     13 C         146.2498  142.3940  155.8437 C.ar    1  UNL1        0.2293
     14 C         145.6987  141.7090  157.0590 C.ar    1  UNL1        0.0924
     15 C         144.2170  141.6654  157.2882 C.ar    1  UNL1        0.1453
     16 N         143.2864  142.3068  156.3020 N.ar    1  UNL1       -0.2084
     17 C         143.8374  142.9918  155.0867 C.ar    1  UNL1        0.2027
     18 N         145.3192  143.0354  154.8575 N.ar    1  UNL1       -0.1892
     19 C         148.2777  142.3454  154.2204 C.3     1  UNL1        0.2542
     20 O         147.7315  142.4376  155.6144 O.3     1  UNL1       -0.4560
     21 C         142.5057  140.7623  162.2011 C.ar    1  UNL1        0.0813
     22 C         143.1859  139.9582  163.2692 C.ar    1  UNL1        0.0185
     23 C         142.8123  140.1552  164.7086 C.ar    1  UNL1        0.0204
     24 C         141.7586  141.1561  165.0798 C.ar    1  UNL1        0.0811
     25 N         141.0784  141.9602  164.0116 N.ar    1  UNL1       -0.2425
     26 C         141.4521  141.7632  162.5723 C.ar    1  UNL1        0.1141
     27 C         141.3850  141.3531  166.5191 C.ar    1  UNL1        0.0137
     28 C         142.1837  142.2860  167.3804 C.ar    1  UNL1        0.0012
     29 C         141.8101  142.4829  168.8197 C.ar    1  UNL1        0.0012
     30 C         140.6379  141.7469  169.3977 C.ar    1  UNL1        0.0137
     31 C         139.8392  140.8139  168.5364 C.ar    1  UNL1       -0.0031
     32 C         140.2127  140.6170  167.0972 C.ar    1  UNL1       -0.0204
     33 C         139.4141  139.6841  166.2359 C.3     1  UNL1        0.0311
     34 C         140.2643  141.9438  170.8370 C.2     1  UNL1        0.0729
     35 O         140.7371  140.9693  171.8747 O.co2   1  UNL1       -0.5446
     36 O         139.4179  143.1153  171.2387 O.co2   1  UNL1       -0.5446
     37 C         143.4023  136.5333  155.2496 C.3     1  UNL1        0.1183
     38 C         143.0334  135.1030  155.5107 C.ar    1  UNL1        0.0712
     39 N         144.0050  134.1917  156.2003 N.ar    1  UNL1       -0.2471
     40 C         143.6361  132.7614  156.4614 C.ar    1  UNL1        0.0985
     41 C         142.2955  132.2424  156.0329 C.ar    1  UNL1        0.0203
     42 C         141.3239  133.1537  155.3433 C.ar    1  UNL1       -0.0015
     43 C         141.6928  134.5840  155.0822 C.ar    1  UNL1       -0.0069
     44 C         140.7212  135.4953  154.3926 C.3     1  UNL1        0.0323
@<TRIPOS>UNITY_ATOM_ATTR
35 1
charge -1
@<TRIPOS>BOND
     1    19    20    1
     2    20    13    1
     3    13    14   ar
     4    14    15   ar
     5    15     1    1
     6     1     2   am
     7     2     3    2
     8     2     4   am
     9     4    21    1
    10    21    22   ar
    11    22    23   ar
    12    23    24   ar
    13    24    27    1
    14    27    28   ar
    15    28    29   ar
    16    29    30   ar
    17    30    34    1
    18    34    35   ar
    19    34    36   ar
    20    30    31   ar
    21    31    32   ar
    22    32    33    1
    23    24    25   ar
    24    25    26   ar
    25     4     5   am
    26     5     6    2
    27     5     7    1
    28     7     8    1
    29     8     9    1
    30     9    10    1
    31    10    37    1
    32    37    38    1
    33    38    39   ar
    34    39    40   ar
    35    40    41   ar
    36    41    42   ar
    37    42    43   ar
    38    43    44    1
    39    10    11    1
    40    11    12    1
    41    15    16   ar
    42    16    17   ar
    43    17    18   ar
    44    18    13   ar
    45     7     1    1
    46    43    38   ar
    47    26    21   ar
    48    12     7    1
    49    32    27   ar
@<TRIPOS>MOLECULE
*****
 44 49 0 0 0
SMALL
GASTEIGER

@<TRIPOS>ATOM
      1 N         141.9758  138.5728  158.5906 N.am    1  UNL1       -0.2222
      2 C         141.3705  138.6048  159.9627 C.2     1  UNL1        0.3220
      3 O         140.2336  137.7534  160.4449 O.2     1  UNL1       -0.2512
      4 N         142.1017  139.6379  160.7679 N.am    1  UNL1       -0.1892
      5 C         143.1589  140.2442  159.8935 C.2     1  UNL1        0.2529
      6 O         144.1244  141.3199  160.2942 O.2     1  UNL1       -0.2724
      7 C         143.0811  139.5860  158.5478 C.3     1  UNL1        0.1391
      8 C         142.8849  138.8424  157.2600 C.3     1  UNL1        0.0449
      9 C         143.7589  139.1444  156.0789 C.3     1  UNL1        0.0746
     10 N         144.8291  140.1899  156.1857 N.3     1  UNL1       -0.2676
     11 C         145.0253  140.9335  157.4735 C.3     1  UNL1        0.0746
     12 C         144.1513  140.6316  158.6546 C.3     1  UNL1        0.0449
     13 C         141.8482  135.5049  156.0763 C.ar    1  UNL1        0.2293
     14 C         142.2735  136.3940  157.2071 C.ar    1  UNL1        0.0924
     15 C         141.5505  137.6837  157.4598 C.ar    1  UNL1        0.1453
     16 N         140.4021  138.0843  156.5818 N.ar    1  UNL1       -0.2084
     17 C         139.9768  137.1953  155.4511 C.ar    1  UNL1        0.2027
     18 N         140.6998  135.9055  155.1983 N.ar    1  UNL1       -0.1892
     19 C         143.1257  133.4284  156.9739 C.3     1  UNL1        0.2542
     20 O         142.5711  134.2152  155.8235 O.3     1  UNL1       -0.4560
     21 C         141.8244  140.0007  162.1966 C.ar    1  UNL1        0.0813
     22 C         142.5108  139.2596  163.3055 C.ar    1  UNL1        0.0185
     23 C         142.2335  139.6225  164.7343 C.ar    1  UNL1        0.0204
     24 C         141.2698  140.7265  165.0542 C.ar    1  UNL1        0.0811
     25 N         140.5833  141.4677  163.9453 N.ar    1  UNL1       -0.2425
     26 C         140.8607  141.1047  162.5166 C.ar    1  UNL1        0.1141
     27 C         140.9924  141.0894  166.4830 C.ar    1  UNL1        0.0137
     28 C         141.8110  142.1483  167.1603 C.ar    1  UNL1        0.0012
     29 C         141.5337  142.5112  168.5891 C.ar    1  UNL1        0.0012
     30 C         140.4378  141.8151  169.3405 C.ar    1  UNL1        0.0137
     31 C         139.6192  140.7563  168.6632 C.ar    1  UNL1       -0.0031
     32 C         139.8965  140.3934  167.2345 C.ar    1  UNL1       -0.0204
     33 C         139.0780  139.3345  166.5572 C.3     1  UNL1        0.0311
     34 C         140.1604  142.1780  170.7693 C.2     1  UNL1        0.0729
     35 O         139.3067  143.3694  171.0884 O.co2   1  UNL1       -0.5446
     36 O         140.7369  141.3495  171.8790 O.co2   1  UNL1       -0.5446
     37 C         145.7031  140.4919  155.0046 C.3     1  UNL1        0.1183
     38 C         145.8542  141.9051  154.5251 C.ar    1  UNL1        0.0712
     39 N         144.7183  142.5824  153.8173 N.ar    1  UNL1       -0.2471
     40 C         144.8694  143.9957  153.3378 C.ar    1  UNL1        0.0985
     41 C         146.1563  144.7317  153.5662 C.ar    1  UNL1        0.0203
     42 C         147.2922  144.0544  154.2741 C.ar    1  UNL1       -0.0015
     43 C         147.1411  142.6411  154.7536 C.ar    1  UNL1       -0.0069
     44 C         148.2770  141.9638  155.4614 C.3     1  UNL1        0.0323
@<TRIPOS>UNITY_ATOM_ATTR
35 1
charge -1
@<TRIPOS>BOND
     1    19    20    1
     2    20    13    1
     3    13    14   ar
     4    14    15   ar
     5    15     1    1
     6     1     2   am
     7     2     3    2
     8     2     4   am
     9     4    21    1
    10    21    22   ar
    11    22    23   ar
    12    23    24   ar
    13    24    27    1
    14    27    28   ar
    15    28    29   ar
    16    29    30   ar
    17    30    34    1
    18    34    35   ar
    19    34    36   ar
    20    30    31   ar
    21    31    32   ar
    22    32    33    1
    23    24    25   ar
    24    25    26   ar
    25     4     5   am
    26     5     6    2
    27     5     7    1
    28     7     8    1
    29     8     9    1
    30     9    10    1
    31    10    37    1
    32    37    38    1
    33    38    39   ar
    34    39    40   ar
    35    40    41   ar
    36    41    42   ar
    37    42    43   ar
    38    43    44    1
    39    10    11    1
    40    11    12    1
    41    15    16   ar
    42    16    17   ar
    43    17    18   ar
    44    18    13   ar
    45     7     1    1
    46    43    38   ar
    47    26    21   ar
    48    12     7    1
    49    32    27   ar
@<TRIPOS>MOLECULE
*****
 44 49 0 0 0
SMALL
GASTEIGER

@<TRIPOS>ATOM
      1 N         143.7268  140.9550  158.5277 N.am    1  UNL1       -0.2222
      2 C         143.5110  141.5853  159.8717 C.2     1  UNL1        0.3220
      3 O         143.8325  143.0027  160.2427 O.2     1  UNL1       -0.2512
      4 N         142.9173  140.5492  160.7796 N.am    1  UNL1       -0.1892
      5 C         142.7662  139.2787  159.9967 C.2     1  UNL1        0.2529
      6 O         142.2120  137.9846  160.5145 O.2     1  UNL1       -0.2724
      7 C         143.2665  139.5295  158.6049 C.3     1  UNL1        0.1391
      8 C         143.7977  139.9270  157.2597 C.3     1  UNL1        0.0449
      9 C         143.8316  138.9277  156.1416 C.3     1  UNL1        0.0746
     10 N         143.3345  137.5309  156.3687 N.3     1  UNL1       -0.2676
     11 C         142.8033  137.1333  157.7140 C.3     1  UNL1        0.0746
     12 C         142.7693  138.1326  158.8321 C.3     1  UNL1        0.0449
     13 C         143.9800  143.0651  155.1761 C.ar    1  UNL1        0.2293
     14 C         143.4048  142.3885  156.3850 C.ar    1  UNL1        0.0924
     15 C         144.3020  141.6315  157.3188 C.ar    1  UNL1        0.1453
     16 N         145.7744  141.5510  157.0436 N.ar    1  UNL1       -0.2084
     17 C         146.3496  142.2275  155.8348 C.ar    1  UNL1        0.2027
     18 N         145.4523  142.9845  154.9009 N.ar    1  UNL1       -0.1892
     19 C         143.6231  144.9813  153.4584 C.3     1  UNL1        0.2542
     20 O         143.0828  143.8221  154.2423 O.3     1  UNL1       -0.4560
     21 C         142.5408  140.7487  162.2177 C.ar    1  UNL1        0.0813
     22 C         143.2197  139.9475  163.2888 C.ar    1  UNL1        0.0185
     23 C         142.8432  140.1470  164.7270 C.ar    1  UNL1        0.0204
     24 C         141.7879  141.1477  165.0942 C.ar    1  UNL1        0.0811
     25 N         141.1090  141.9490  164.0231 N.ar    1  UNL1       -0.2425
     26 C         141.4855  141.7494  162.5849 C.ar    1  UNL1        0.1141
     27 C         141.4114  141.3472  166.5324 C.ar    1  UNL1        0.0137
     28 C         142.2187  142.2683  167.3982 C.ar    1  UNL1        0.0012
     29 C         141.8422  142.4678  168.8364 C.ar    1  UNL1        0.0012
     30 C         140.6583  141.7461  169.4088 C.ar    1  UNL1        0.0137
     31 C         139.8510  140.8249  168.5430 C.ar    1  UNL1       -0.0031
     32 C         140.2274  140.6255  167.1048 C.ar    1  UNL1       -0.0204
     33 C         139.4201  139.7043  166.2390 C.3     1  UNL1        0.0311
     34 C         140.2818  141.9456  170.8470 C.2     1  UNL1        0.0729
     35 O         140.7281  140.9571  171.8832 O.co2   1  UNL1       -0.5446
     36 O         139.4591  143.1337  171.2490 O.co2   1  UNL1       -0.5446
     37 C         143.3685  136.5316  155.2505 C.3     1  UNL1        0.1183
     38 C         143.0115  135.0987  155.5140 C.ar    1  UNL1        0.0712
     39 N         143.9685  134.2111  156.2532 N.ar    1  UNL1       -0.2471
     40 C         143.6114  132.7782  156.5167 C.ar    1  UNL1        0.0985
     41 C         142.2974  132.2330  156.0411 C.ar    1  UNL1        0.0203
     42 C         141.3405  133.1206  155.3020 C.ar    1  UNL1       -0.0015
     43 C         141.6975  134.5535  155.0384 C.ar    1  UNL1       -0.0069
     44 C         140.7405  135.4411  154.2993 C.3     1  UNL1        0.0323
@<TRIPOS>UNITY_ATOM_ATTR
35 1
charge -1
@<TRIPOS>BOND
     1    19    20    1
     2    20    13    1
     3    13    14   ar
     4    14    15   ar
     5    15     1    1
     6     1     2   am
     7     2     3    2
     8     2     4   am
     9     4    21    1
    10    21    22   ar
    11    22    23   ar
    12    23    24   ar
    13    24    27    1
    14    27    28   ar
    15    28    29   ar
    16    29    30   ar
    17    30    34    1
    18    34    35   ar
    19    34    36   ar
    20    30    31   ar
    21    31    32   ar
    22    32    33    1
    23    24    25   ar
    24    25    26   ar
    25     4     5   am
    26     5     6    2
    27     5     7    1
    28     7     8    1
    29     8     9    1
    30     9    10    1
    31    10    37    1
    32    37    38    1
    33    38    39   ar
    34    39    40   ar
    35    40    41   ar
    36    41    42   ar
    37    42    43   ar
    38    43    44    1
    39    10    11    1
    40    11    12    1
    41    15    16   ar
    42    16    17   ar
    43    17    18   ar
    44    18    13   ar
    45     7     1    1
    46    43    38   ar
    47    26    21   ar
    48    12     7    1
    49    32    27   ar
@<TRIPOS>MOLECULE
*****
 44 49 0 0 0
SMALL
GASTEIGER

@<TRIPOS>ATOM
      1 N         142.2098  138.5893  158.5541 N.am    1  UNL1       -0.2222
      2 C         142.7220  138.8422  159.9411 C.2     1  UNL1        0.3220
      3 O         144.0573  138.4201  160.4786 O.2     1  UNL1       -0.2512
      4 N         141.6644  139.5914  160.6964 N.am    1  UNL1       -0.1892
      5 C         140.4986  139.8015  159.7761 C.2     1  UNL1        0.2529
      6 O         139.2203  140.5070  160.1195 O.2     1  UNL1       -0.2724
      7 C         140.8357  139.1822  158.4521 C.3     1  UNL1        0.1391
      8 C         141.3105  138.5221  157.1916 C.3     1  UNL1        0.0449
      9 C         140.4283  138.4996  155.9787 C.3     1  UNL1        0.0746
     10 N         139.0714  139.1371  156.0262 N.3     1  UNL1       -0.2676
     11 C         138.5966  139.7972  157.2867 C.3     1  UNL1        0.0746
     12 C         139.4787  139.8197  158.4996 C.3     1  UNL1        0.0449
     13 C         143.6170  135.6539  156.2841 C.ar    1  UNL1        0.2293
     14 C         142.8839  136.3734  157.3772 C.ar    1  UNL1        0.0924
     15 C         142.9430  137.8698  157.4610 C.ar    1  UNL1        0.1453
     16 N         143.7353  138.6468  156.4518 N.ar    1  UNL1       -0.2084
     17 C         144.4685  137.9275  155.3588 C.ar    1  UNL1        0.2027
     18 N         144.4094  136.4309  155.2749 N.ar    1  UNL1       -0.1892
     19 C         143.9962  133.3230  157.3672 C.3     1  UNL1        0.2542
     20 O         143.5580  134.1574  156.2002 O.3     1  UNL1       -0.4560
     21 C         141.7564  140.0500  162.1215 C.ar    1  UNL1        0.0813
     22 C         142.1257  139.0757  163.2005 C.ar    1  UNL1        0.0185
     23 C         142.2178  139.5343  164.6257 C.ar    1  UNL1        0.0204
     24 C         141.9405  140.9672  164.9719 C.ar    1  UNL1        0.0811
     25 N         141.5712  141.9416  163.8929 N.ar    1  UNL1       -0.2425
     26 C         141.4792  141.4829  162.4677 C.ar    1  UNL1        0.1141
     27 C         142.0326  141.4258  166.3972 C.ar    1  UNL1        0.0137
     28 C         143.3153  142.0031  166.9179 C.ar    1  UNL1        0.0012
     29 C         143.4074  142.4617  168.3431 C.ar    1  UNL1        0.0012
     30 C         142.2166  142.3429  169.2475 C.ar    1  UNL1        0.0137
     31 C         140.9339  141.7655  168.7268 C.ar    1  UNL1       -0.0031
     32 C         140.8418  141.3069  167.3017 C.ar    1  UNL1       -0.0204
     33 C         139.5591  140.7296  166.7810 C.3     1  UNL1        0.0311
     34 C         142.3086  142.8015  170.6728 C.2     1  UNL1        0.0729
     35 O         143.2561  143.9026  171.0466 O.co2   1  UNL1       -0.5446
     36 O         141.4531  142.1589  171.7241 O.co2   1  UNL1       -0.5446
     37 C         138.1892  139.1146  154.8132 C.3     1  UNL1        0.1183
     38 C         136.8496  139.7885  154.8474 C.ar    1  UNL1        0.0712
     39 N         135.6294  139.0120  155.2451 N.ar    1  UNL1       -0.2471
     40 C         134.2897  139.6860  155.2794 C.ar    1  UNL1        0.0985
     41 C         134.1703  141.1363  154.9159 C.ar    1  UNL1        0.0203
     42 C         135.3905  141.9128  154.5182 C.ar    1  UNL1       -0.0015
     43 C         136.7301  141.2389  154.4840 C.ar    1  UNL1       -0.0069
     44 C         137.9503  142.0154  154.0863 C.3     1  UNL1        0.0323
@<TRIPOS>UNITY_ATOM_ATTR
35 1
charge -1
@<TRIPOS>BOND
     1    19    20    1
     2    20    13    1
     3    13    14   ar
     4    14    15   ar
     5    15     1    1
     6     1     2   am
     7     2     3    2
     8     2     4   am
     9     4    21    1
    10    21    22   ar
    11    22    23   ar
    12    23    24   ar
    13    24    27    1
    14    27    28   ar
    15    28    29   ar
    16    29    30   ar
    17    30    34    1
    18    34    35   ar
    19    34    36   ar
    20    30    31   ar
    21    31    32   ar
    22    32    33    1
    23    24    25   ar
    24    25    26   ar
    25     4     5   am
    26     5     6    2
    27     5     7    1
    28     7     8    1
    29     8     9    1
    30     9    10    1
    31    10    37    1
    32    37    38    1
    33    38    39   ar
    34    39    40   ar
    35    40    41   ar
    36    41    42   ar
    37    42    43   ar
    38    43    44    1
    39    10    11    1
    40    11    12    1
    41    15    16   ar
    42    16    17   ar
    43    17    18   ar
    44    18    13   ar
    45     7     1    1
    46    43    38   ar
    47    26    21   ar
    48    12     7    1
    49    32    27   ar
@<TRIPOS>MOLECULE
*****
 44 49 0 0 0
SMALL
GASTEIGER

@<TRIPOS>ATOM
      1 N         138.5476  141.0648  158.5941 N.am    1  UNL1       -0.2222
      2 C         138.5804  141.6675  159.9674 C.2     1  UNL1        0.3220
      3 O         137.6889  142.7637  160.4707 O.2     1  UNL1       -0.2512
      4 N         139.6614  140.9814  160.7489 N.am    1  UNL1       -0.1892
      5 C         140.2966  139.9547  159.8587 C.2     1  UNL1        0.2529
      6 O         141.4225  139.0375  160.2342 O.2     1  UNL1       -0.2724
      7 C         139.6082  140.0062  158.5269 C.3     1  UNL1        0.1391
      8 C         138.8304  140.1721  157.2551 C.3     1  UNL1        0.0449
      9 C         139.1471  139.3155  156.0652 C.3     1  UNL1        0.0746
     10 N         140.2416  138.2931  156.1471 N.3     1  UNL1       -0.2676
     11 C         141.0194  138.1272  157.4188 C.3     1  UNL1        0.0746
     12 C         140.7027  138.9838  158.6088 C.3     1  UNL1        0.0449
     13 C         136.9714  143.0607  155.5475 C.ar    1  UNL1        0.2293
     14 C         137.9016  142.6729  156.6585 C.ar    1  UNL1        0.0924
     15 C         137.6173  141.4526  157.4831 C.ar    1  UNL1        0.1453
     16 N         136.4029  140.6201  157.1968 N.ar    1  UNL1       -0.2084
     17 C         135.4726  141.0078  156.0859 C.ar    1  UNL1        0.2027
     18 N         135.7569  142.2282  155.2612 N.ar    1  UNL1       -0.1892
     19 C         138.0977  145.3872  155.2859 C.3     1  UNL1        0.2542
     20 O         137.2555  144.2810  154.7229 O.3     1  UNL1       -0.4560
     21 C         140.0406  141.2711  162.1709 C.ar    1  UNL1        0.0813
     22 C         140.6692  142.5857  162.5266 C.ar    1  UNL1        0.0185
     23 C         141.0484  142.8754  163.9486 C.ar    1  UNL1        0.0204
     24 C         140.7991  141.8505  165.0151 C.ar    1  UNL1        0.0811
     25 N         140.1705  140.5357  164.6594 N.ar    1  UNL1       -0.2425
     26 C         139.7913  140.2461  163.2373 C.ar    1  UNL1        0.1141
     27 C         141.1783  142.1402  166.4371 C.ar    1  UNL1        0.0137
     28 C         140.1902  142.7910  167.3591 C.ar    1  UNL1        0.0012
     29 C         140.5694  143.0807  168.7812 C.ar    1  UNL1        0.0012
     30 C         141.9368  142.7195  169.2812 C.ar    1  UNL1        0.0137
     31 C         142.9248  142.0687  168.3592 C.ar    1  UNL1       -0.0031
     32 C         142.5457  141.7790  166.9372 C.ar    1  UNL1       -0.0204
     33 C         143.5337  141.1282  166.0152 C.3     1  UNL1        0.0311
     34 C         142.3160  143.0092  170.7033 C.2     1  UNL1        0.0729
     35 O         141.5928  142.3267  171.8263 O.co2   1  UNL1       -0.5446
     36 O         143.4184  143.9816  171.0023 O.co2   1  UNL1       -0.5446
     37 C         140.5582  137.4365  154.9571 C.3     1  UNL1        0.1183
     38 C         141.4786  136.2611  155.1026 C.ar    1  UNL1        0.0712
     39 N         140.9136  134.8873  155.3106 N.ar    1  UNL1       -0.2471
     40 C         141.8341  133.7118  155.4562 C.ar    1  UNL1        0.0985
     41 C         143.3195  133.9103  155.3938 C.ar    1  UNL1        0.0203
     42 C         143.8846  135.2841  155.1859 C.ar    1  UNL1       -0.0015
     43 C         142.9642  136.4595  155.0403 C.ar    1  UNL1       -0.0069
     44 C         143.5292  137.8334  154.8323 C.3     1  UNL1        0.0323
@<TRIPOS>UNITY_ATOM_ATTR
35 1
charge -1
@<TRIPOS>BOND
     1    19    20    1
     2    20    13    1
     3    13    14   ar
     4    14    15   ar
     5    15     1    1
     6     1     2   am
     7     2     3    2
     8     2     4   am
     9     4    21    1
    10    21    22   ar
    11    22    23   ar
    12    23    24   ar
    13    24    27    1
    14    27    28   ar
    15    28    29   ar
    16    29    30   ar
    17    30    34    1
    18    34    35   ar
    19    34    36   ar
    20    30    31   ar
    21    31    32   ar
    22    32    33    1
    23    24    25   ar
    24    25    26   ar
    25     4     5   am
    26     5     6    2
    27     5     7    1
    28     7     8    1
    29     8     9    1
    30     9    10    1
    31    10    37    1
    32    37    38    1
    33    38    39   ar
    34    39    40   ar
    35    40    41   ar
    36    41    42   ar
    37    42    43   ar
    38    43    44    1
    39    10    11    1
    40    11    12    1
    41    15    16   ar
    42    16    17   ar
    43    17    18   ar
    44    18    13   ar
    45     7     1    1
    46    43    38   ar
    47    26    21   ar
    48    12     7    1
    49    32    27   ar
@<TRIPOS>MOLECULE
*****
 44 49 0 0 0
SMALL
GASTEIGER

@<TRIPOS>ATOM
      1 N         141.9475  138.5207  158.6504 N.am    1  UNL1       -0.2222
      2 C         141.3464  138.5605  160.0242 C.2     1  UNL1        0.3220
      3 O         140.2174  137.7050  160.5177 O.2     1  UNL1       -0.2512
      4 N         142.0725  139.6060  160.8178 N.am    1  UNL1       -0.1892
      5 C         143.1224  140.2124  159.9346 C.2     1  UNL1        0.2529
      6 O         144.0811  141.2987  160.3226 O.2     1  UNL1       -0.2724
      7 C         143.0451  139.5416  158.5950 C.3     1  UNL1        0.1391
      8 C         142.8503  138.7852  157.3145 C.3     1  UNL1        0.0449
      9 C         143.7183  139.0831  156.1280 C.3     1  UNL1        0.0746
     10 N         144.7810  140.1374  156.2220 N.3     1  UNL1       -0.2676
     11 C         144.9759  140.8939  157.5025 C.3     1  UNL1        0.0746
     12 C         144.1079  140.5960  158.6890 C.3     1  UNL1        0.0449
     13 C         139.8545  137.0172  155.6324 C.ar    1  UNL1        0.2293
     14 C         140.2769  137.9195  156.7538 C.ar    1  UNL1        0.0924
     15 C         141.5252  137.6185  157.5290 C.ar    1  UNL1        0.1453
     16 N         142.3512  136.4152  157.1829 N.ar    1  UNL1       -0.2084
     17 C         141.9289  135.5129  156.0616 C.ar    1  UNL1        0.2027
     18 N         140.6805  135.8139  155.2863 N.ar    1  UNL1       -0.1892
     19 C         138.1616  138.7390  154.6736 C.3     1  UNL1        0.2542
     20 O         138.6062  137.3182  154.8571 O.3     1  UNL1       -0.4560
     21 C         141.7971  139.9795  162.2441 C.ar    1  UNL1        0.0813
     22 C         142.5356  139.2936  163.3551 C.ar    1  UNL1        0.0185
     23 C         142.2602  139.6672  164.7815 C.ar    1  UNL1        0.0204
     24 C         141.2463  140.7266  165.0970 C.ar    1  UNL1        0.0811
     25 N         140.5078  141.4126  163.9860 N.ar    1  UNL1       -0.2425
     26 C         140.7832  141.0390  162.5597 C.ar    1  UNL1        0.1141
     27 C         140.9709  141.1002  166.5234 C.ar    1  UNL1        0.0137
     28 C         141.7711  142.1841  167.1827 C.ar    1  UNL1        0.0012
     29 C         141.4957  142.5577  168.6091 C.ar    1  UNL1        0.0012
     30 C         140.4201  141.8472  169.3761 C.ar    1  UNL1        0.0137
     31 C         139.6199  140.7632  168.7168 C.ar    1  UNL1       -0.0031
     32 C         139.8953  140.3897  167.2905 C.ar    1  UNL1       -0.0204
     33 C         139.0951  139.3057  166.6312 C.3     1  UNL1        0.0311
     34 C         140.1447  142.2207  170.8025 C.2     1  UNL1        0.0729
     35 O         139.2693  143.3983  171.1139 O.co2   1  UNL1       -0.5446
     36 O         140.7447  141.4166  171.9177 O.co2   1  UNL1       -0.5446
     37 C         145.6490  140.4353  155.0354 C.3     1  UNL1        0.1183
     38 C         145.8190  141.8500  154.5667 C.ar    1  UNL1        0.0712
     39 N         144.6774  142.5631  153.9047 N.ar    1  UNL1       -0.2471
     40 C         144.8475  143.9779  153.4361 C.ar    1  UNL1        0.0985
     41 C         146.1590  144.6795  153.6295 C.ar    1  UNL1        0.0203
     42 C         147.3006  143.9664  154.2915 C.ar    1  UNL1       -0.0015
     43 C         147.1306  142.5517  154.7601 C.ar    1  UNL1       -0.0069
     44 C         148.2722  141.8386  155.4221 C.3     1  UNL1        0.0323
@<TRIPOS>UNITY_ATOM_ATTR
35 1
charge -1
@<TRIPOS>BOND
     1    19    20    1
     2    20    13    1
     3    13    14   ar
     4    14    15   ar
     5    15     1    1
     6     1     2   am
     7     2     3    2
     8     2     4   am
     9     4    21    1
    10    21    22   ar
    11    22    23   ar
    12    23    24   ar
    13    24    27    1
    14    27    28   ar
    15    28    29   ar
    16    29    30   ar
    17    30    34    1
    18    34    35   ar
    19    34    36   ar
    20    30    31   ar
    21    31    32   ar
    22    32    33    1
    23    24    25   ar
    24    25    26   ar
    25     4     5   am
    26     5     6    2
    27     5     7    1
    28     7     8    1
    29     8     9    1
    30     9    10    1
    31    10    37    1
    32    37    38    1
    33    38    39   ar
    34    39    40   ar
    35    40    41   ar
    36    41    42   ar
    37    42    43   ar
    38    43    44    1
    39    10    11    1
    40    11    12    1
    41    15    16   ar
    42    16    17   ar
    43    17    18   ar
    44    18    13   ar
    45     7     1    1
    46    43    38   ar
    47    26    21   ar
    48    12     7    1
    49    32    27   ar
@<TRIPOS>MOLECULE
*****
 44 49 0 0 0
SMALL
GASTEIGER

@<TRIPOS>ATOM
      1 N         139.7426  140.5198  157.2067 N.am    1  UNL1       -0.2222
      2 C         139.8473  141.7463  156.3493 C.2     1  UNL1        0.3220
      3 O         140.3228  141.7902  154.9274 O.2     1  UNL1       -0.2512
      4 N         139.3929  142.9213  157.1637 N.am    1  UNL1       -0.1892
      5 C         139.0074  142.4210  158.5243 C.2     1  UNL1        0.2529
      6 O         138.4957  143.2578  159.6591 O.2     1  UNL1       -0.2724
      7 C         139.2235  140.9368  158.5508 C.3     1  UNL1        0.1391
      8 C         139.4881  139.4654  158.4286 C.3     1  UNL1        0.0449
      9 C         139.2305  138.5576  159.5945 C.3     1  UNL1        0.0746
     10 N         138.7082  139.1212  160.8828 N.3     1  UNL1       -0.2676
     11 C         138.4435  140.5926  161.0050 C.3     1  UNL1        0.0746
     12 C         138.7012  141.5004  159.8391 C.3     1  UNL1        0.0449
     13 C         141.8299  137.1955  156.6223 C.ar    1  UNL1        0.2293
     14 C         141.4774  138.5934  157.0365 C.ar    1  UNL1        0.0924
     15 C         140.0950  139.1219  156.7925 C.ar    1  UNL1        0.1453
     16 N         139.0651  138.2525  156.1342 N.ar    1  UNL1       -0.2084
     17 C         139.4174  136.8546  155.7200 C.ar    1  UNL1        0.2027
     18 N         140.8000  136.3261  155.9641 N.ar    1  UNL1       -0.1892
     19 C         144.0410  136.1754  155.7167 C.3     1  UNL1        0.2542
     20 O         143.2123  136.6669  156.8663 O.3     1  UNL1       -0.4560
     21 C         139.3343  144.3462  156.6992 C.ar    1  UNL1        0.0813
     22 C         138.3605  144.7475  155.6312 C.ar    1  UNL1        0.0185
     23 C         138.3019  146.1725  155.1666 C.ar    1  UNL1        0.0204
     24 C         139.2172  147.1963  155.7699 C.ar    1  UNL1        0.0811
     25 N         140.1911  146.7951  156.8380 N.ar    1  UNL1       -0.2425
     26 C         140.2496  145.3700  157.3025 C.ar    1  UNL1        0.1141
     27 C         139.1586  148.6214  155.3053 C.ar    1  UNL1        0.0137
     28 C         139.6586  148.9859  153.9389 C.ar    1  UNL1        0.0012
     29 C         139.6000  150.4109  153.4743 C.ar    1  UNL1        0.0012
     30 C         139.0414  151.4714  154.3762 C.ar    1  UNL1        0.0137
     31 C         138.5414  151.1069  155.7426 C.ar    1  UNL1       -0.0031
     32 C         138.6000  149.6819  156.2072 C.ar    1  UNL1       -0.0204
     33 C         138.1000  149.3174  157.5736 C.3     1  UNL1        0.0311
     34 C         138.9829  152.8964  153.9116 C.2     1  UNL1        0.0729
     35 O         137.7918  153.3862  153.1425 O.co2   1  UNL1       -0.5446
     36 O         140.1154  153.8317  154.2161 O.co2   1  UNL1       -0.5446
     37 C         138.4505  138.2134  162.0488 C.3     1  UNL1        0.1183
     38 C         138.9904  138.5617  163.4041 C.ar    1  UNL1        0.0712
     39 N         138.0999  139.2097  164.4224 N.ar    1  UNL1       -0.2471
     40 C         138.6399  139.5580  165.7779 C.ar    1  UNL1        0.0985
     41 C         140.0705  139.2582  166.1149 C.ar    1  UNL1        0.0203
     42 C         140.9610  138.6101  165.0966 C.ar    1  UNL1       -0.0015
     43 C         140.4210  138.2619  163.7413 C.ar    1  UNL1       -0.0069
     44 C         141.3116  137.6138  162.7230 C.3     1  UNL1        0.0323
@<TRIPOS>UNITY_ATOM_ATTR
35 1
charge -1
@<TRIPOS>BOND
     1    19    20    1
     2    20    13    1
     3    13    14   ar
     4    14    15   ar
     5    15     1    1
     6     1     2   am
     7     2     3    2
     8     2     4   am
     9     4    21    1
    10    21    22   ar
    11    22    23   ar
    12    23    24   ar
    13    24    27    1
    14    27    28   ar
    15    28    29   ar
    16    29    30   ar
    17    30    34    1
    18    34    35   ar
    19    34    36   ar
    20    30    31   ar
    21    31    32   ar
    22    32    33    1
    23    24    25   ar
    24    25    26   ar
    25     4     5   am
    26     5     6    2
    27     5     7    1
    28     7     8    1
    29     8     9    1
    30     9    10    1
    31    10    37    1
    32    37    38    1
    33    38    39   ar
    34    39    40   ar
    35    40    41   ar
    36    41    42   ar
    37    42    43   ar
    38    43    44    1
    39    10    11    1
    40    11    12    1
    41    15    16   ar
    42    16    17   ar
    43    17    18   ar
    44    18    13   ar
    45     7     1    1
    46    43    38   ar
    47    26    21   ar
    48    12     7    1
    49    32    27   ar
@<TRIPOS>MOLECULE
*****
 44 49 0 0 0
SMALL
GASTEIGER

@<TRIPOS>ATOM
      1 N         138.9629  141.0822  158.3061 N.am    1  UNL1       -0.2222
      2 C         138.7919  141.6234  159.6947 C.2     1  UNL1        0.3220
      3 O         137.9672  142.8153  160.0811 O.2     1  UNL1       -0.2512
      4 N         139.5903  140.7633  160.6290 N.am    1  UNL1       -0.1892
      5 C         140.2548  139.6907  159.8179 C.2     1  UNL1        0.2529
      6 O         141.1499  138.6106  160.3490 O.2     1  UNL1       -0.2724
      7 C         139.8671  139.8878  158.3822 C.3     1  UNL1        0.1391
      8 C         139.3952  140.2084  156.9950 C.3     1  UNL1        0.0449
      9 C         139.8345  139.3600  155.8386 C.3     1  UNL1        0.0746
     10 N         140.7456  138.1910  156.0695 N.3     1  UNL1       -0.2676
     11 C         141.2174  137.8704  157.4568 C.3     1  UNL1        0.0746
     12 C         140.7782  138.7188  158.6131 C.3     1  UNL1        0.0449
     13 C         136.3282  141.7806  155.4216 C.ar    1  UNL1        0.2293
     14 C         136.9519  141.2248  156.6675 C.ar    1  UNL1        0.0924
     15 C         138.3393  141.6380  157.0603 C.ar    1  UNL1        0.1453
     16 N         139.1031  142.6070  156.2072 N.ar    1  UNL1       -0.2084
     17 C         138.4795  143.1628  154.9614 C.ar    1  UNL1        0.2027
     18 N         137.0920  142.7495  154.5685 N.ar    1  UNL1       -0.1892
     19 C         134.1339  140.4893  155.9385 C.3     1  UNL1        0.2542
     20 O         134.9408  141.3674  155.0287 O.3     1  UNL1       -0.4560
     21 C         139.7043  140.9442  162.1136 C.ar    1  UNL1        0.0813
     22 C         138.4677  141.1137  162.9456 C.ar    1  UNL1        0.0185
     23 C         138.5817  141.2946  164.4303 C.ar    1  UNL1        0.0204
     24 C         139.9322  141.3059  165.0830 C.ar    1  UNL1        0.0811
     25 N         141.1688  141.1364  164.2510 N.ar    1  UNL1       -0.2425
     26 C         141.0548  140.9555  162.7663 C.ar    1  UNL1        0.1141
     27 C         140.0462  141.4867  166.5677 C.ar    1  UNL1        0.0137
     28 C         140.6801  142.7263  167.1258 C.ar    1  UNL1        0.0012
     29 C         140.7941  142.9072  168.6105 C.ar    1  UNL1        0.0012
     30 C         140.2740  141.8484  169.5370 C.ar    1  UNL1        0.0137
     31 C         139.6401  140.6088  168.9789 C.ar    1  UNL1       -0.0031
     32 C         139.5261  140.4279  167.4943 C.ar    1  UNL1       -0.0204
     33 C         138.8922  139.1883  166.9363 C.3     1  UNL1        0.0311
     34 C         140.3880  142.0292  171.0217 C.2     1  UNL1        0.0729
     35 O         139.4886  142.9981  171.7305 O.co2   1  UNL1       -0.5446
     36 O         141.4014  141.2412  171.7977 O.co2   1  UNL1       -0.5446
     37 C         141.1849  137.3426  154.9131 C.3     1  UNL1        0.1183
     38 C         141.8157  136.0046  155.1615 C.ar    1  UNL1        0.0712
     39 N         140.9673  134.7678  155.1833 N.ar    1  UNL1       -0.2471
     40 C         141.5982  133.4297  155.4317 C.ar    1  UNL1        0.0985
     41 C         143.0775  133.3285  155.6583 C.ar    1  UNL1        0.0203
     42 C         143.9260  134.5653  155.6365 C.ar    1  UNL1       -0.0015
     43 C         143.2951  135.9033  155.3881 C.ar    1  UNL1       -0.0069
     44 C         144.1435  137.1401  155.3663 C.3     1  UNL1        0.0323
@<TRIPOS>UNITY_ATOM_ATTR
35 1
charge -1
@<TRIPOS>BOND
     1    19    20    1
     2    20    13    1
     3    13    14   ar
     4    14    15   ar
     5    15     1    1
     6     1     2   am
     7     2     3    2
     8     2     4   am
     9     4    21    1
    10    21    22   ar
    11    22    23   ar
    12    23    24   ar
    13    24    27    1
    14    27    28   ar
    15    28    29   ar
    16    29    30   ar
    17    30    34    1
    18    34    35   ar
    19    34    36   ar
    20    30    31   ar
    21    31    32   ar
    22    32    33    1
    23    24    25   ar
    24    25    26   ar
    25     4     5   am
    26     5     6    2
    27     5     7    1
    28     7     8    1
    29     8     9    1
    30     9    10    1
    31    10    37    1
    32    37    38    1
    33    38    39   ar
    34    39    40   ar
    35    40    41   ar
    36    41    42   ar
    37    42    43   ar
    38    43    44    1
    39    10    11    1
    40    11    12    1
    41    15    16   ar
    42    16    17   ar
    43    17    18   ar
    44    18    13   ar
    45     7     1    1
    46    43    38   ar
    47    26    21   ar
    48    12     7    1
    49    32    27   ar
