@<TRIPOS>MOLECULE
*****
 44 50 0 0 0
SMALL
GASTEIGER

@<TRIPOS>ATOM
      1 C         141.1701  140.1120  159.3106 C.3     1  UNL1        0.1354
      2 N         141.7275  138.8285  158.7703 N.3     1  UNL1       -0.2823
      3 C         142.4633  138.8218  157.4633 C.3     1  UNL1        0.1166
      4 C         142.6418  140.0985  156.6964 C.3     1  UNL1        0.0511
      5 C         142.0844  141.3821  157.2366 C.2     1  UNL1       -0.0038
      6 C         141.3486  141.3888  158.5437 C.2     1  UNL1        0.0768
      7 N         140.9132  142.7967  158.8232 N.2     1  UNL1       -0.2520
      8 C         141.3799  143.6601  157.6888 C.2     1  UNL1        0.0627
      9 C         141.2392  145.1295  157.4221 C.3     1  UNL1        0.0717
     10 C         141.8225  145.7245  156.1748 C.2     1  UNL1       -0.0198
     11 C         142.5464  144.8501  155.1943 C.2     1  UNL1       -0.0042
     12 C         142.6871  143.3808  155.4610 C.2     1  UNL1        0.0006
     13 C         142.1038  142.7858  156.7083 C.2     1  UNL1        0.0111
     14 H         140.9419  138.1858  158.6693 H       1  UNL1        0.1245
     15 C         139.0574  142.9783  162.0621 C.ar    1  UNL1        0.0947
     16 C         140.5210  142.7051  162.2440 C.ar    1  UNL1        0.0093
     17 C         141.2253  141.7497  161.3267 C.ar    1  UNL1        0.0169
     18 C         140.4658  141.0675  160.2278 C.ar    1  UNL1        0.0810
     19 N         139.0022  141.3406  160.0459 N.ar    1  UNL1       -0.2460
     20 C         138.2979  142.2961  160.9631 C.ar    1  UNL1        0.1049
     21 C         138.3530  143.9337  162.9793 C.2     1  UNL1        0.3427
     22 O         137.8439  145.2422  162.4518 O.2     1  UNL1       -0.2448
     23 O         138.1579  143.5804  164.4240 O.3     1  UNL1       -0.4454
     24 C         140.2423  143.1786  165.9220 C.3     1  UNL1        0.0513
     25 C         139.1314  144.0713  165.4542 C.3     1  UNL1        0.2089
     26 C         140.7470  139.1671  160.3959 C.ar    1  UNL1        0.0407
     27 C         139.4152  138.4850  160.5014 C.ar    1  UNL1        0.1193
     28 N         139.4266  137.6347  161.7371 N.ar    1  UNL1       -0.1679
     29 N         140.7653  137.7913  162.3953 N.ar    1  UNL1       -0.2476
     30 C         141.2099  137.1190  163.6603 C.3     1  UNL1        0.1537
     31 C         141.5814  138.7384  161.5664 C.ar    1  UNL1        0.0944
     32 C         143.0207  137.5382  156.9230 C.ar    1  UNL1        0.1318
     33 N         142.7847  136.1682  157.4864 N.ar    1  UNL1       -0.2298
     34 C         143.5301  135.1826  156.6361 C.ar    1  UNL1        0.0996
     35 C         144.2268  135.9435  155.5472 C.ar    1  UNL1        0.0927
     36 N         143.9120  137.3993  155.7245 N.ar    1  UNL1       -0.3386
     37 H         144.2339  138.1346  155.1544 H       1  UNL1        0.1672
     38 C         143.5714  133.6969  156.8391 C.ar    1  UNL1        0.0193
     39 C         142.5594  132.8193  156.1641 C.ar    1  UNL1        0.0039
     40 C         142.6008  131.3337  156.3671 C.ar    1  UNL1        0.0297
     41 C         143.6541  130.7257  157.2450 C.ar    1  UNL1        0.1401
     42 F         143.6955  129.2401  157.4480 F       1  UNL1       -0.2042
     43 C         144.6661  131.6034  157.9199 C.ar    1  UNL1        0.0297
     44 C         144.6248  133.0890  157.7170 C.ar    1  UNL1        0.0039
@<TRIPOS>BOND
     1    24    25    1
     2    25    23    1
     3    23    21    1
     4    21    22    2
     5    21    15    1
     6    15    16   ar
     7    16    17   ar
     8    17    18   ar
     9     1    18    1
    10     1    26    1
    11    26    27   ar
    12    27    28   ar
    13    28    29   ar
    14    29    30    1
    15    29    31   ar
    16     1     2    1
    17     2     3    1
    18     3    32    1
    19    32    33   ar
    20    33    34   ar
    21    34    38    1
    22    38    39   ar
    23    39    40   ar
    24    40    41   ar
    25    41    42    1
    26    41    43   ar
    27    43    44   ar
    28    34    35   ar
    29    35    36   ar
    30     3     4    1
    31     4     5    1
    32     5     6    2
    33     6     7    1
    34     7     8    2
    35     8     9    1
    36     9    10    1
    37    10    11    2
    38    11    12    1
    39    12    13    2
    40    18    19   ar
    41    19    20   ar
    42    20    15   ar
    43     6     1    1
    44    13     8    1
    45    31    26   ar
    46    36    32   ar
    47    13     5    1
    48    44    38   ar
    49     2    14    1
    50    36    37    1
@<TRIPOS>MOLECULE
*****
 44 50 0 0 0
SMALL
GASTEIGER

@<TRIPOS>ATOM
      1 C         142.7375  139.0701  158.7383 C.3     1  UNL1        0.1354
      2 N         142.1969  137.8257  158.0986 N.3     1  UNL1       -0.2823
      3 C         142.6594  137.4246  156.7293 C.3     1  UNL1        0.1166
      4 C         143.6625  138.2680  155.9995 C.3     1  UNL1        0.0511
      5 C         144.2031  139.5124  156.6392 C.2     1  UNL1       -0.0038
      6 C         143.7406  139.9135  158.0086 C.2     1  UNL1        0.0768
      7 N         144.4453  141.1838  158.3822 N.2     1  UNL1       -0.2520
      8 C         145.3434  141.5679  157.2438 C.2     1  UNL1        0.0627
      9 C         146.2781  142.7247  157.0490 C.3     1  UNL1        0.0717
     10 C         147.0631  142.8486  155.7769 C.2     1  UNL1       -0.0198
     11 C         146.9134  141.8156  154.6996 C.2     1  UNL1       -0.0042
     12 C         145.9787  140.6588  154.8944 C.2     1  UNL1        0.0006
     13 C         145.1937  140.5349  156.1665 C.2     1  UNL1        0.0111
     14 H         141.1844  137.9374  158.0465 H       1  UNL1        0.1245
     15 C         143.3932  142.3163  161.7849 C.ar    1  UNL1        0.0947
     16 C         142.2804  142.4385  160.7864 C.ar    1  UNL1        0.0093
     17 C         142.0619  141.3564  159.7709 C.ar    1  UNL1        0.0169
     18 C         142.9561  140.1522  159.7539 C.ar    1  UNL1        0.0810
     19 N         144.0687  140.0301  160.7523 N.ar    1  UNL1       -0.2460
     20 C         144.2874  141.1122  161.7678 C.ar    1  UNL1        0.1049
     21 C         143.6118  143.3984  162.8004 C.2     1  UNL1        0.3427
     22 O         144.4127  144.6144  162.4402 O.2     1  UNL1       -0.2448
     23 O         143.0294  143.2644  164.1763 O.3     1  UNL1       -0.4454
     24 C         141.0768  144.9337  163.7879 C.3     1  UNL1        0.0513
     25 C         141.6163  143.6941  164.4377 C.3     1  UNL1        0.2089
     26 C         141.8103  138.6025  159.8207 C.ar    1  UNL1        0.0407
     27 C         142.2034  137.8330  161.0468 C.ar    1  UNL1        0.1193
     28 N         140.9632  137.5773  161.8510 N.ar    1  UNL1       -0.1679
     29 N         139.8037  138.1888  161.1219 N.ar    1  UNL1       -0.2476
     30 C         138.3721  138.1700  161.5691 C.3     1  UNL1        0.1537
     31 C         140.3272  138.8225  159.8671 C.ar    1  UNL1        0.0944
     32 C         142.1188  136.1802  156.0895 C.ar    1  UNL1        0.1318
     33 N         142.4998  134.7722  156.4394 N.ar    1  UNL1       -0.2298
     34 C         141.7188  133.8471  155.5538 C.ar    1  UNL1        0.0996
     35 C         140.8552  134.6833  154.6567 C.ar    1  UNL1        0.0927
     36 N         141.1024  136.1253  154.9878 N.ar    1  UNL1       -0.3386
     37 H         140.6730  136.8997  154.5575 H       1  UNL1        0.1672
     38 C         141.7892  132.3487  155.5636 C.ar    1  UNL1        0.0193
     39 C         142.8335  131.6523  156.3849 C.ar    1  UNL1        0.0039
     40 C         142.9038  130.1540  156.3947 C.ar    1  UNL1        0.0297
     41 C         141.9299  129.3521  155.5833 C.ar    1  UNL1        0.1401
     42 F         142.0003  127.8538  155.5931 F       1  UNL1       -0.2042
     43 C         140.8857  130.0485  154.7620 C.ar    1  UNL1        0.0297
     44 C         140.8153  131.5468  154.7522 C.ar    1  UNL1        0.0039
@<TRIPOS>BOND
     1    24    25    1
     2    25    23    1
     3    23    21    1
     4    21    22    2
     5    21    15    1
     6    15    16   ar
     7    16    17   ar
     8    17    18   ar
     9     1    18    1
    10     1    26    1
    11    26    27   ar
    12    27    28   ar
    13    28    29   ar
    14    29    30    1
    15    29    31   ar
    16     1     2    1
    17     2     3    1
    18     3    32    1
    19    32    33   ar
    20    33    34   ar
    21    34    38    1
    22    38    39   ar
    23    39    40   ar
    24    40    41   ar
    25    41    42    1
    26    41    43   ar
    27    43    44   ar
    28    34    35   ar
    29    35    36   ar
    30     3     4    1
    31     4     5    1
    32     5     6    2
    33     6     7    1
    34     7     8    2
    35     8     9    1
    36     9    10    1
    37    10    11    2
    38    11    12    1
    39    12    13    2
    40    18    19   ar
    41    19    20   ar
    42    20    15   ar
    43     6     1    1
    44    13     8    1
    45    31    26   ar
    46    36    32   ar
    47    13     5    1
    48    44    38   ar
    49     2    14    1
    50    36    37    1
@<TRIPOS>MOLECULE
*****
 44 50 0 0 0
SMALL
GASTEIGER

@<TRIPOS>ATOM
      1 C         142.5982  139.8669  160.1333 C.3     1  UNL1        0.1354
      2 N         142.6209  140.4777  161.5031 N.3     1  UNL1       -0.2823
      3 C         143.5805  141.5880  161.8134 C.3     1  UNL1        0.1166
      4 C         144.5175  142.0875  160.7538 C.3     1  UNL1        0.0511
      5 C         144.4948  141.4767  159.3840 C.2     1  UNL1       -0.0038
      6 C         143.5352  140.3664  159.0738 C.2     1  UNL1        0.0768
      7 N         143.7406  139.9622  157.6439 N.2     1  UNL1       -0.2520
      8 C         144.8273  140.8227  157.0705 C.2     1  UNL1        0.0627
      9 C         145.4525  140.8749  155.7081 C.3     1  UNL1        0.0717
     10 C         146.5439  141.8630  155.4211 C.2     1  UNL1       -0.0198
     11 C         147.0100  142.7990  156.4965 C.2     1  UNL1       -0.0042
     12 C         146.3848  142.7469  157.8590 C.2     1  UNL1        0.0006
     13 C         145.2934  141.7587  158.1460 C.2     1  UNL1        0.0111
     14 H         142.8221  139.7228  162.1588 H       1  UNL1        0.1245
     15 C         141.4107  137.1916  156.7154 C.ar    1  UNL1        0.0947
     16 C         140.6603  138.4660  156.9659 C.ar    1  UNL1        0.0093
     17 C         141.0562  139.3578  158.1053 C.ar    1  UNL1        0.0169
     18 C         142.2024  138.9751  158.9940 C.ar    1  UNL1        0.0810
     19 N         142.9526  137.7007  158.7434 N.ar    1  UNL1       -0.2460
     20 C         142.5568  136.8088  157.6041 C.ar    1  UNL1        0.1049
     21 C         141.0148  136.2997  155.5761 C.2     1  UNL1        0.3427
     22 O         139.6770  136.4704  154.9198 O.2     1  UNL1       -0.2448
     23 O         141.9571  135.2372  155.0931 O.3     1  UNL1       -0.4454
     24 C         142.5548  133.0646  156.3864 C.3     1  UNL1        0.0513
     25 C         141.6859  133.7956  155.4063 C.3     1  UNL1        0.2089
     26 C         141.5238  139.0577  160.7971 C.ar    1  UNL1        0.0407
     27 C         141.7331  137.8236  161.6238 C.ar    1  UNL1        0.1193
     28 N         140.3900  137.3437  162.0884 N.ar    1  UNL1       -0.1679
     29 N         139.3506  138.2811  161.5489 N.ar    1  UNL1       -0.2476
     30 C         137.8705  138.1774  161.7689 C.3     1  UNL1        0.1537
     31 C         140.0513  139.3404  160.7509 C.ar    1  UNL1        0.0944
     32 C         143.6033  142.1989  163.1832 C.ar    1  UNL1        0.1318
     33 N         142.7939  141.7483  164.3629 N.ar    1  UNL1       -0.2298
     34 C         143.1297  142.6384  165.5226 C.ar    1  UNL1        0.0996
     35 C         144.1467  143.6391  165.0596 C.ar    1  UNL1        0.0927
     36 N         144.4393  143.3674  163.6137 N.ar    1  UNL1       -0.3386
     37 H         145.0695  143.8682  163.0469 H       1  UNL1        0.1672
     38 C         142.5503  142.5444  166.9031 C.ar    1  UNL1        0.0193
     39 C         143.4576  142.4039  168.0893 C.ar    1  UNL1        0.0039
     40 C         142.8782  142.3098  169.4697 C.ar    1  UNL1        0.0297
     41 C         141.3916  142.3563  169.6638 C.ar    1  UNL1        0.1401
     42 F         140.8121  142.2622  171.0442 F       1  UNL1       -0.2042
     43 C         140.4843  142.4967  168.4776 C.ar    1  UNL1        0.0297
     44 C         141.0637  142.5908  167.0972 C.ar    1  UNL1        0.0039
@<TRIPOS>BOND
     1    24    25    1
     2    25    23    1
     3    23    21    1
     4    21    22    2
     5    21    15    1
     6    15    16   ar
     7    16    17   ar
     8    17    18   ar
     9     1    18    1
    10     1    26    1
    11    26    27   ar
    12    27    28   ar
    13    28    29   ar
    14    29    30    1
    15    29    31   ar
    16     1     2    1
    17     2     3    1
    18     3    32    1
    19    32    33   ar
    20    33    34   ar
    21    34    38    1
    22    38    39   ar
    23    39    40   ar
    24    40    41   ar
    25    41    42    1
    26    41    43   ar
    27    43    44   ar
    28    34    35   ar
    29    35    36   ar
    30     3     4    1
    31     4     5    1
    32     5     6    2
    33     6     7    1
    34     7     8    2
    35     8     9    1
    36     9    10    1
    37    10    11    2
    38    11    12    1
    39    12    13    2
    40    18    19   ar
    41    19    20   ar
    42    20    15   ar
    43     6     1    1
    44    13     8    1
    45    31    26   ar
    46    36    32   ar
    47    13     5    1
    48    44    38   ar
    49     2    14    1
    50    36    37    1
@<TRIPOS>MOLECULE
*****
 44 50 0 0 0
SMALL
GASTEIGER

@<TRIPOS>ATOM
      1 C         141.8444  143.3555  159.7026 C.3     1  UNL1        0.1354
      2 N         142.1922  142.7915  161.0482 N.3     1  UNL1       -0.2823
      3 C         143.3419  141.8382  161.1875 C.3     1  UNL1        0.1166
      4 C         144.1440  141.4491  159.9811 C.3     1  UNL1        0.0511
      5 C         143.7962  142.0132  158.6355 C.2     1  UNL1       -0.0038
      6 C         142.6464  142.9664  158.4962 C.2     1  UNL1        0.0768
      7 N         142.5406  143.3570  157.0518 N.2     1  UNL1       -0.2520
      8 C         143.6249  142.6452  156.2984 C.2     1  UNL1        0.0627
      9 C         144.0059  142.6460  154.8476 C.3     1  UNL1        0.0717
     10 C         145.1630  141.8163  154.3756 C.2     1  UNL1       -0.0198
     11 C         145.9390  140.9858  155.3544 C.2     1  UNL1       -0.0042
     12 C         145.5580  140.9849  156.8052 C.2     1  UNL1        0.0006
     13 C         144.4010  141.8146  157.2772 C.2     1  UNL1        0.0111
     14 H         141.3626  142.3036  161.3863 H       1  UNL1        0.1245
     15 C         139.7079  145.7407  156.5410 C.ar    1  UNL1        0.0947
     16 C         139.2034  144.3809  156.9234 C.ar    1  UNL1        0.0093
     17 C         139.9156  143.5858  157.9773 C.ar    1  UNL1        0.0169
     18 C         141.1322  144.1507  158.6487 C.ar    1  UNL1        0.0810
     19 N         141.6367  145.5104  158.2662 N.ar    1  UNL1       -0.2460
     20 C         140.9245  146.3056  157.2123 C.ar    1  UNL1        0.1049
     21 C         138.9957  146.5358  155.4870 C.2     1  UNL1        0.3427
     22 O         137.7474  145.9952  154.8552 O.2     1  UNL1       -0.2448
     23 O         139.5319  147.8717  155.0651 O.3     1  UNL1       -0.4454
     24 C         138.3784  149.2996  156.9037 C.3     1  UNL1        0.0513
     25 C         138.8278  149.1285  155.4829 C.3     1  UNL1        0.2089
     26 C         140.7951  144.0208  160.5429 C.ar    1  UNL1        0.0407
     27 C         140.6069  145.4994  160.7111 C.ar    1  UNL1        0.1193
     28 N         139.4451  145.7167  161.6348 N.ar    1  UNL1       -0.1679
     29 N         138.9153  144.3724  162.0375 N.ar    1  UNL1       -0.2476
     30 C         137.7550  144.1205  162.9540 C.3     1  UNL1        0.1537
     31 C         139.7497  143.3243  161.3627 C.ar    1  UNL1        0.0944
     32 C         143.6897  141.2741  162.5333 C.ar    1  UNL1        0.1318
     33 N         142.9750  141.5603  163.8206 N.ar    1  UNL1       -0.2298
     34 C         143.6568  140.7879  164.9108 C.ar    1  UNL1        0.0996
     35 C         144.7929  140.0244  164.2972 C.ar    1  UNL1        0.0927
     36 N         144.8132  140.3249  162.8278 N.ar    1  UNL1       -0.3386
     37 H         145.4518  139.9627  162.1718 H       1  UNL1        0.1672
     38 C         143.2704  140.7803  166.3602 C.ar    1  UNL1        0.0193
     39 C         143.2435  142.0639  167.1359 C.ar    1  UNL1        0.0039
     40 C         142.8571  142.0564  168.5853 C.ar    1  UNL1        0.0297
     41 C         142.4976  140.7653  169.2589 C.ar    1  UNL1        0.1401
     42 F         142.1111  140.7577  170.7083 F       1  UNL1       -0.2042
     43 C         142.5244  139.4817  168.4832 C.ar    1  UNL1        0.0297
     44 C         142.9109  139.4892  167.0338 C.ar    1  UNL1        0.0039
@<TRIPOS>BOND
     1    24    25    1
     2    25    23    1
     3    23    21    1
     4    21    22    2
     5    21    15    1
     6    15    16   ar
     7    16    17   ar
     8    17    18   ar
     9     1    18    1
    10     1    26    1
    11    26    27   ar
    12    27    28   ar
    13    28    29   ar
    14    29    30    1
    15    29    31   ar
    16     1     2    1
    17     2     3    1
    18     3    32    1
    19    32    33   ar
    20    33    34   ar
    21    34    38    1
    22    38    39   ar
    23    39    40   ar
    24    40    41   ar
    25    41    42    1
    26    41    43   ar
    27    43    44   ar
    28    34    35   ar
    29    35    36   ar
    30     3     4    1
    31     4     5    1
    32     5     6    2
    33     6     7    1
    34     7     8    2
    35     8     9    1
    36     9    10    1
    37    10    11    2
    38    11    12    1
    39    12    13    2
    40    18    19   ar
    41    19    20   ar
    42    20    15   ar
    43     6     1    1
    44    13     8    1
    45    31    26   ar
    46    36    32   ar
    47    13     5    1
    48    44    38   ar
    49     2    14    1
    50    36    37    1
@<TRIPOS>MOLECULE
*****
 44 50 0 0 0
SMALL
GASTEIGER

@<TRIPOS>ATOM
      1 C         142.6904  138.7368  158.3928 C.3     1  UNL1        0.1354
      2 N         142.3914  137.3004  158.0810 N.3     1  UNL1       -0.2823
      3 C         142.8497  136.7035  156.7834 C.3     1  UNL1        0.1166
      4 C         143.6070  137.5431  155.7977 C.3     1  UNL1        0.0511
      5 C         143.9060  138.9795  156.1095 C.2     1  UNL1       -0.0038
      6 C         143.4477  139.5764  157.4071 C.2     1  UNL1        0.0768
      7 N         143.8861  141.0105  157.4380 N.2     1  UNL1       -0.2520
      8 C         144.6154  141.3001  156.1596 C.2     1  UNL1        0.0627
      9 C         145.2698  142.5445  155.6371 C.3     1  UNL1        0.0717
     10 C         145.9365  142.5337  154.2935 C.2     1  UNL1       -0.0198
     11 C         145.9488  141.2784  153.4724 C.2     1  UNL1       -0.0042
     12 C         145.2944  140.0340  153.9949 C.2     1  UNL1        0.0006
     13 C         144.6277  140.0448  155.3385 C.2     1  UNL1        0.0111
     14 H         141.3770  137.1977  158.1103 H       1  UNL1        0.1245
     15 C         142.8135  142.6424  160.6245 C.ar    1  UNL1        0.0947
     16 C         143.9035  141.6311  160.8221 C.ar    1  UNL1        0.0093
     17 C         143.8625  140.3292  160.0782 C.ar    1  UNL1        0.0169
     18 C         142.7314  140.0387  159.1367 C.ar    1  UNL1        0.0810
     19 N         141.6414  141.0500  158.9392 N.ar    1  UNL1       -0.2460
     20 C         141.6824  142.3520  159.6831 C.ar    1  UNL1        0.1049
     21 C         142.8544  143.9444  161.3685 C.2     1  UNL1        0.3427
     22 O         141.6966  144.8939  161.2827 O.2     1  UNL1       -0.2448
     23 O         144.0534  144.2966  162.1982 O.3     1  UNL1       -0.4454
     24 C         144.4170  142.9666  164.4001 C.3     1  UNL1        0.0513
     25 C         143.9802  144.2159  163.6942 C.3     1  UNL1        0.2089
     26 C         141.9474  138.3494  159.6369 C.ar    1  UNL1        0.0407
     27 C         142.5308  137.6570  160.8328 C.ar    1  UNL1        0.1193
     28 N         141.4343  137.4661  161.8385 N.ar    1  UNL1       -0.1679
     29 N         140.1733  138.0404  161.2642 N.ar    1  UNL1       -0.2476
     30 C         138.8310  138.0647  161.9330 C.3     1  UNL1        0.1537
     31 C         140.4904  138.5864  159.9035 C.ar    1  UNL1        0.0944
     32 C         142.5507  135.2670  156.4715 C.ar    1  UNL1        0.1318
     33 N         143.3027  134.0773  156.9901 N.ar    1  UNL1       -0.2298
     34 C         142.6640  132.8431  156.4254 C.ar    1  UNL1        0.0996
     35 C         141.5174  133.2701  155.5577 C.ar    1  UNL1        0.0927
     36 N         141.4474  134.7682  155.5862 N.ar    1  UNL1       -0.3386
     37 H         140.7923  135.3261  155.1079 H       1  UNL1        0.1672
     38 C         143.0962  131.4300  156.6831 C.ar    1  UNL1        0.0193
     39 C         142.4801  130.3039  155.9069 C.ar    1  UNL1        0.0039
     40 C         142.9122  128.8908  156.1646 C.ar    1  UNL1        0.0297
     41 C         143.9604  128.6038  157.1984 C.ar    1  UNL1        0.1401
     42 F         144.3926  127.1907  157.4561 F       1  UNL1       -0.2042
     43 C         144.5766  129.7299  157.9745 C.ar    1  UNL1        0.0297
     44 C         144.1444  131.1430  157.7168 C.ar    1  UNL1        0.0039
@<TRIPOS>BOND
     1    24    25    1
     2    25    23    1
     3    23    21    1
     4    21    22    2
     5    21    15    1
     6    15    16   ar
     7    16    17   ar
     8    17    18   ar
     9     1    18    1
    10     1    26    1
    11    26    27   ar
    12    27    28   ar
    13    28    29   ar
    14    29    30    1
    15    29    31   ar
    16     1     2    1
    17     2     3    1
    18     3    32    1
    19    32    33   ar
    20    33    34   ar
    21    34    38    1
    22    38    39   ar
    23    39    40   ar
    24    40    41   ar
    25    41    42    1
    26    41    43   ar
    27    43    44   ar
    28    34    35   ar
    29    35    36   ar
    30     3     4    1
    31     4     5    1
    32     5     6    2
    33     6     7    1
    34     7     8    2
    35     8     9    1
    36     9    10    1
    37    10    11    2
    38    11    12    1
    39    12    13    2
    40    18    19   ar
    41    19    20   ar
    42    20    15   ar
    43     6     1    1
    44    13     8    1
    45    31    26   ar
    46    36    32   ar
    47    13     5    1
    48    44    38   ar
    49     2    14    1
    50    36    37    1
@<TRIPOS>MOLECULE
*****
 44 50 0 0 0
SMALL
GASTEIGER

@<TRIPOS>ATOM
      1 C         141.7993  140.5481  159.2104 C.3     1  UNL1        0.1354
      2 N         142.3186  139.6209  158.1519 N.3     1  UNL1       -0.2823
      3 C         142.5487  138.1732  158.4701 C.3     1  UNL1        0.1166
      4 C         142.2594  137.6527  159.8469 C.3     1  UNL1        0.0511
      5 C         141.7402  138.5800  160.9054 C.2     1  UNL1       -0.0038
      6 C         141.5101  140.0277  160.5872 C.2     1  UNL1        0.0768
      7 N         140.9951  140.6984  161.8261 N.2     1  UNL1       -0.2520
      8 C         140.9068  139.6652  162.9100 C.2     1  UNL1        0.0627
      9 C         140.4666  139.7475  164.3416 C.3     1  UNL1        0.0717
     10 C         140.4870  138.5205  165.2041 C.2     1  UNL1       -0.0198
     11 C         140.9474  137.2113  164.6351 C.2     1  UNL1       -0.0042
     12 C         141.3876  137.1290  163.2036 C.2     1  UNL1        0.0006
     13 C         141.3673  138.3560  162.3410 C.2     1  UNL1        0.0111
     14 H         143.2133  139.9999  157.8415 H       1  UNL1        0.1245
     15 C         140.3707  144.3279  161.1907 C.ar    1  UNL1        0.0947
     16 C         141.8358  144.0087  161.1529 C.ar    1  UNL1        0.0093
     17 C         142.3120  142.7487  160.4928 C.ar    1  UNL1        0.0169
     18 C         141.3230  141.8081  159.8705 C.ar    1  UNL1        0.0810
     19 N         139.8580  142.1274  159.9083 N.ar    1  UNL1       -0.2460
     20 C         139.3817  143.3874  160.5684 C.ar    1  UNL1        0.1049
     21 C         139.8944  145.5879  161.8508 C.2     1  UNL1        0.3427
     22 O         139.1320  146.6079  161.0581 O.2     1  UNL1       -0.2448
     23 O         140.1805  145.8278  163.3036 O.3     1  UNL1       -0.4454
     24 C         138.6883  144.8096  165.1707 C.3     1  UNL1        0.0513
     25 C         139.9143  144.7469  164.3089 C.3     1  UNL1        0.2089
     26 C         141.9231  141.5061  158.0629 C.ar    1  UNL1        0.0407
     27 C         143.1791  142.1995  157.6248 C.ar    1  UNL1        0.1193
     28 N         142.8448  143.0609  156.4431 N.ar    1  UNL1       -0.1679
     29 N         141.3824  142.8999  156.1509 N.ar    1  UNL1       -0.2476
     30 C         140.6230  143.5803  155.0508 C.3     1  UNL1        0.1537
     31 C         140.8128  141.9390  157.1520 C.ar    1  UNL1        0.0944
     32 C         143.0680  137.2458  157.4115 C.ar    1  UNL1        0.1318
     33 N         142.9090  135.7545  157.3908 N.ar    1  UNL1       -0.2298
     34 C         143.5801  135.2340  156.1543 C.ar    1  UNL1        0.0996
     35 C         144.1539  136.4037  155.4110 C.ar    1  UNL1        0.0927
     36 N         143.8373  137.6471  156.1880 N.ar    1  UNL1       -0.3386
     37 H         144.0902  138.5654  155.9387 H       1  UNL1        0.1672
     38 C         143.6630  133.7962  155.7349 C.ar    1  UNL1        0.0193
     39 C         144.5423  132.8441  156.4901 C.ar    1  UNL1        0.0039
     40 C         144.6252  131.4063  156.0707 C.ar    1  UNL1        0.0297
     41 C         143.8287  130.9207  154.8961 C.ar    1  UNL1        0.1401
     42 F         143.9116  129.4828  154.4767 F       1  UNL1       -0.2042
     43 C         142.9494  131.8727  154.1409 C.ar    1  UNL1        0.0297
     44 C         142.8665  133.3105  154.5603 C.ar    1  UNL1        0.0039
@<TRIPOS>BOND
     1    24    25    1
     2    25    23    1
     3    23    21    1
     4    21    22    2
     5    21    15    1
     6    15    16   ar
     7    16    17   ar
     8    17    18   ar
     9     1    18    1
    10     1    26    1
    11    26    27   ar
    12    27    28   ar
    13    28    29   ar
    14    29    30    1
    15    29    31   ar
    16     1     2    1
    17     2     3    1
    18     3    32    1
    19    32    33   ar
    20    33    34   ar
    21    34    38    1
    22    38    39   ar
    23    39    40   ar
    24    40    41   ar
    25    41    42    1
    26    41    43   ar
    27    43    44   ar
    28    34    35   ar
    29    35    36   ar
    30     3     4    1
    31     4     5    1
    32     5     6    2
    33     6     7    1
    34     7     8    2
    35     8     9    1
    36     9    10    1
    37    10    11    2
    38    11    12    1
    39    12    13    2
    40    18    19   ar
    41    19    20   ar
    42    20    15   ar
    43     6     1    1
    44    13     8    1
    45    31    26   ar
    46    36    32   ar
    47    13     5    1
    48    44    38   ar
    49     2    14    1
    50    36    37    1
@<TRIPOS>MOLECULE
*****
 44 50 0 0 0
SMALL
GASTEIGER

@<TRIPOS>ATOM
      1 C         140.4826  141.3721  160.2020 C.3     1  UNL1        0.1354
      2 N         140.8751  141.0918  161.6223 N.3     1  UNL1       -0.2823
      3 C         141.6551  139.8543  161.9545 C.3     1  UNL1        0.1166
      4 C         142.0426  138.8973  160.8665 C.3     1  UNL1        0.0511
      5 C         141.6501  139.1776  159.4461 C.2     1  UNL1       -0.0038
      6 C         140.8702  140.4150  159.1139 C.2     1  UNL1        0.0768
      7 N         140.6264  140.4258  157.6339 N.2     1  UNL1       -0.2520
      8 C         141.2558  139.1951  157.0514 C.2     1  UNL1        0.0627
      9 C         141.3345  138.6772  155.6459 C.3     1  UNL1        0.0717
     10 C         142.0458  137.3879  155.3604 C.2     1  UNL1       -0.0198
     11 C         142.6785  136.6164  156.4805 C.2     1  UNL1       -0.0042
     12 C         142.5999  137.1343  157.8860 C.2     1  UNL1        0.0006
     13 C         141.8885  138.4236  158.1715 C.2     1  UNL1        0.0111
     14 H         140.0116  141.0497  162.1636 H       1  UNL1        0.1245
     15 C         138.6848  143.4624  156.6455 C.ar    1  UNL1        0.0947
     16 C         140.1166  143.7114  157.0170 C.ar    1  UNL1        0.0093
     17 C         140.7159  143.0146  158.2025 C.ar    1  UNL1        0.0169
     18 C         139.8833  142.0689  159.0164 C.ar    1  UNL1        0.0810
     19 N         138.4516  141.8199  158.6449 N.ar    1  UNL1       -0.2460
     20 C         137.8523  142.5167  157.4594 C.ar    1  UNL1        0.1049
     21 C         138.0855  144.1591  155.4600 C.2     1  UNL1        0.3427
     22 O         136.6786  143.8510  155.0411 O.2     1  UNL1       -0.2448
     23 O         138.8932  145.1641  154.6933 O.3     1  UNL1       -0.4454
     24 C         139.2250  147.2133  156.2556 C.3     1  UNL1        0.0513
     25 C         138.7242  146.6290  154.9681 C.3     1  UNL1        0.2089
     26 C         139.8870  142.5711  160.8783 C.ar    1  UNL1        0.0407
     27 C         138.5491  142.6282  161.5543 C.ar    1  UNL1        0.1193
     28 N         138.3599  144.0161  162.0911 N.ar    1  UNL1       -0.1679
     29 N         139.5807  144.8167  161.7469 N.ar    1  UNL1       -0.2476
     30 C         139.8165  146.2573  162.0917 C.3     1  UNL1        0.1537
     31 C         140.5245  143.9237  160.9973 C.ar    1  UNL1        0.0944
     32 C         142.0476  139.5739  163.3749 C.ar    1  UNL1        0.1318
     33 N         141.2702  139.9626  164.5975 N.ar    1  UNL1       -0.2298
     34 C         142.0285  139.4845  165.8002 C.ar    1  UNL1        0.0996
     35 C         143.2744  138.8005  165.3209 C.ar    1  UNL1        0.0927
     36 N         143.2862  138.8558  163.8220 N.ar    1  UNL1       -0.3386
     37 H         143.9844  138.4857  163.2348 H       1  UNL1        0.1672
     38 C         141.6136  139.6598  167.2311 C.ar    1  UNL1        0.0193
     39 C         140.2124  140.0826  167.5592 C.ar    1  UNL1        0.0039
     40 C         139.7974  140.2579  168.9900 C.ar    1  UNL1        0.0297
     41 C         140.7838  140.0103  170.0926 C.ar    1  UNL1        0.1401
     42 F         140.3689  140.1856  171.5234 F       1  UNL1       -0.2042
     43 C         142.1851  139.5875  169.7644 C.ar    1  UNL1        0.0297
     44 C         142.6000  139.4122  168.3337 C.ar    1  UNL1        0.0039
@<TRIPOS>BOND
     1    24    25    1
     2    25    23    1
     3    23    21    1
     4    21    22    2
     5    21    15    1
     6    15    16   ar
     7    16    17   ar
     8    17    18   ar
     9     1    18    1
    10     1    26    1
    11    26    27   ar
    12    27    28   ar
    13    28    29   ar
    14    29    30    1
    15    29    31   ar
    16     1     2    1
    17     2     3    1
    18     3    32    1
    19    32    33   ar
    20    33    34   ar
    21    34    38    1
    22    38    39   ar
    23    39    40   ar
    24    40    41   ar
    25    41    42    1
    26    41    43   ar
    27    43    44   ar
    28    34    35   ar
    29    35    36   ar
    30     3     4    1
    31     4     5    1
    32     5     6    2
    33     6     7    1
    34     7     8    2
    35     8     9    1
    36     9    10    1
    37    10    11    2
    38    11    12    1
    39    12    13    2
    40    18    19   ar
    41    19    20   ar
    42    20    15   ar
    43     6     1    1
    44    13     8    1
    45    31    26   ar
    46    36    32   ar
    47    13     5    1
    48    44    38   ar
    49     2    14    1
    50    36    37    1
@<TRIPOS>MOLECULE
*****
 44 50 0 0 0
SMALL
GASTEIGER

@<TRIPOS>ATOM
      1 C         139.8666  141.3638  159.0438 C.3     1  UNL1        0.1354
      2 N         138.5009  141.3580  158.4235 N.3     1  UNL1       -0.2823
      3 C         138.3431  141.0688  156.9601 C.3     1  UNL1        0.1166
      4 C         139.5510  140.7854  156.1171 C.3     1  UNL1        0.0511
      5 C         140.9167  140.7912  156.7374 C.2     1  UNL1       -0.0038
      6 C         141.0745  141.0804  158.2007 C.2     1  UNL1        0.0768
      7 N         142.5364  141.0173  158.5306 N.2     1  UNL1       -0.2520
      8 C         143.2821  140.6891  157.2711 C.2     1  UNL1        0.0627
      9 C         144.7433  140.4995  156.9903 C.3     1  UNL1        0.0717
     10 C         145.2034  140.1701  155.6012 C.2     1  UNL1       -0.0198
     11 C         144.2023  140.0303  154.4929 C.2     1  UNL1       -0.0042
     12 C         142.7411  140.2199  154.7737 C.2     1  UNL1        0.0006
     13 C         142.2810  140.5493  156.1628 C.2     1  UNL1        0.0111
     14 H         138.0998  142.2817  158.5861 H       1  UNL1        0.1245
     15 C         143.0947  141.7191  162.1587 C.ar    1  UNL1        0.0947
     16 C         142.3642  140.4213  161.9804 C.ar    1  UNL1        0.0093
     17 C         141.2881  140.3029  160.9421 C.ar    1  UNL1        0.0169
     18 C         140.9427  141.4823  160.0821 C.ar    1  UNL1        0.0810
     19 N         141.6732  142.7801  160.2604 N.ar    1  UNL1       -0.2460
     20 C         142.7493  142.8986  161.2987 C.ar    1  UNL1        0.1049
     21 C         144.1708  141.8376  163.1970 C.2     1  UNL1        0.3427
     22 O         145.5617  141.3655  162.8930 O.2     1  UNL1       -0.2448
     23 O         143.8559  142.4283  164.5394 O.3     1  UNL1       -0.4454
     24 C         143.6824  144.9928  164.1610 C.3     1  UNL1        0.0513
     25 C         144.2999  143.8229  164.8680 C.3     1  UNL1        0.2089
     26 C         139.0325  141.6884  160.2475 C.ar    1  UNL1        0.0407
     27 C         138.0806  140.7570  160.9377 C.ar    1  UNL1        0.1193
     28 N         137.4636  141.4944  162.0891 N.ar    1  UNL1       -0.1679
     29 N         138.0341  142.8815  162.1104 N.ar    1  UNL1       -0.2476
     30 C         137.6947  143.9594  163.0967 C.3     1  UNL1        0.1537
     31 C         139.0038  143.0014  160.9722 C.ar    1  UNL1        0.0944
     32 C         136.9773  141.0630  156.3398 C.ar    1  UNL1        0.1318
     33 N         135.7443  140.4440  156.9283 N.ar    1  UNL1       -0.2298
     34 C         134.6098  140.6736  155.9743 C.ar    1  UNL1        0.0996
     35 C         135.1417  141.4346  154.7962 C.ar    1  UNL1        0.0927
     36 N         136.6049  141.6752  155.0220 N.ar    1  UNL1       -0.3386
     37 H         137.2139  142.1514  154.4124 H       1  UNL1        0.1672
     38 C         133.1922  140.2216  156.1650 C.ar    1  UNL1        0.0193
     39 C         132.0587  141.1334  155.7993 C.ar    1  UNL1        0.0039
     40 C         130.6412  140.6814  155.9900 C.ar    1  UNL1        0.0297
     41 C         130.3572  139.3177  156.5463 C.ar    1  UNL1        0.1401
     42 F         128.9397  138.8657  156.7370 F       1  UNL1       -0.2042
     43 C         131.4908  138.4059  156.9120 C.ar    1  UNL1        0.0297
     44 C         132.9083  138.8579  156.7213 C.ar    1  UNL1        0.0039
@<TRIPOS>BOND
     1    24    25    1
     2    25    23    1
     3    23    21    1
     4    21    22    2
     5    21    15    1
     6    15    16   ar
     7    16    17   ar
     8    17    18   ar
     9     1    18    1
    10     1    26    1
    11    26    27   ar
    12    27    28   ar
    13    28    29   ar
    14    29    30    1
    15    29    31   ar
    16     1     2    1
    17     2     3    1
    18     3    32    1
    19    32    33   ar
    20    33    34   ar
    21    34    38    1
    22    38    39   ar
    23    39    40   ar
    24    40    41   ar
    25    41    42    1
    26    41    43   ar
    27    43    44   ar
    28    34    35   ar
    29    35    36   ar
    30     3     4    1
    31     4     5    1
    32     5     6    2
    33     6     7    1
    34     7     8    2
    35     8     9    1
    36     9    10    1
    37    10    11    2
    38    11    12    1
    39    12    13    2
    40    18    19   ar
    41    19    20   ar
    42    20    15   ar
    43     6     1    1
    44    13     8    1
    45    31    26   ar
    46    36    32   ar
    47    13     5    1
    48    44    38   ar
    49     2    14    1
    50    36    37    1
@<TRIPOS>MOLECULE
*****
 44 50 0 0 0
SMALL
GASTEIGER

@<TRIPOS>ATOM
      1 C         142.4963  140.4143  159.6197 C.3     1  UNL1        0.1354
      2 N         142.7951  139.1129  158.9363 N.3     1  UNL1       -0.2823
      3 C         142.9467  139.0665  157.4447 C.3     1  UNL1        0.1166
      4 C         142.7996  140.3215  156.6365 C.3     1  UNL1        0.0511
      5 C         142.5009  141.6230  157.3198 C.2     1  UNL1       -0.0038
      6 C         142.3492  141.6694  158.8114 C.2     1  UNL1        0.0768
      7 N         142.0576  143.0875  159.2037 N.2     1  UNL1       -0.2520
      8 C         142.0290  143.9175  157.9546 C.2     1  UNL1        0.0627
      9 C         141.7888  145.3805  157.7270 C.3     1  UNL1        0.0717
     10 C         141.8226  145.9384  156.3351 C.2     1  UNL1       -0.0198
     11 C         142.0966  145.0333  155.1708 C.2     1  UNL1       -0.0042
     12 C         142.3367  143.5703  155.3984 C.2     1  UNL1        0.0006
     13 C         142.3029  143.0124  156.7903 C.2     1  UNL1        0.0111
     14 H         142.0367  138.4740  159.1752 H       1  UNL1        0.1245
     15 C         141.6513  143.3673  162.9083 C.ar    1  UNL1        0.0947
     16 C         140.5170  142.6785  162.2092 C.ar    1  UNL1        0.0093
     17 C         140.7987  141.6941  161.1129 C.ar    1  UNL1        0.0169
     18 C         142.2147  141.3987  160.7160 C.ar    1  UNL1        0.0810
     19 N         143.3490  142.0875  161.4151 N.ar    1  UNL1       -0.2460
     20 C         143.0673  143.0719  162.5113 C.ar    1  UNL1        0.1049
     21 C         141.3697  144.3517  164.0046 C.2     1  UNL1        0.3427
     22 O         142.0994  145.6617  164.0420 O.2     1  UNL1       -0.2448
     23 O         140.3584  144.0260  165.0635 O.3     1  UNL1       -0.4454
     24 C         137.8130  144.0231  164.5427 C.3     1  UNL1        0.0513
     25 C         139.0300  144.7226  165.0715 C.3     1  UNL1        0.2089
     26 C         142.5456  139.5012  160.8086 C.ar    1  UNL1        0.0407
     27 C         143.7706  139.1485  161.5993 C.ar    1  UNL1        0.1193
     28 N         143.3606  138.2097  162.6951 N.ar    1  UNL1       -0.1679
     29 N         141.8823  137.9822  162.5816 N.ar    1  UNL1       -0.2476
     30 C         141.0533  137.1097  163.4768 C.3     1  UNL1        0.1537
     31 C         141.3786  138.7804  161.4157 C.ar    1  UNL1        0.0944
     32 C         143.2454  137.7650  156.7613 C.ar    1  UNL1        0.1318
     33 N         142.5229  136.4687  156.9791 N.ar    1  UNL1       -0.2298
     34 C         143.1500  135.4339  156.0926 C.ar    1  UNL1        0.0996
     35 C         144.2601  136.0907  155.3270 C.ar    1  UNL1        0.0927
     36 N         144.3191  137.5314  155.7403 N.ar    1  UNL1       -0.3386
     37 H         144.9515  138.2053  155.4009 H       1  UNL1        0.1672
     38 C         142.7391  133.9949  155.9898 C.ar    1  UNL1        0.0193
     39 C         143.4263  132.9570  156.8268 C.ar    1  UNL1        0.0039
     40 C         143.0155  131.5181  156.7240 C.ar    1  UNL1        0.0297
     41 C         141.9174  131.1170  155.7842 C.ar    1  UNL1        0.1401
     42 F         141.5065  129.6780  155.6814 F       1  UNL1       -0.2042
     43 C         141.2302  132.1548  154.9472 C.ar    1  UNL1        0.0297
     44 C         141.6410  133.5937  155.0500 C.ar    1  UNL1        0.0039
@<TRIPOS>BOND
     1    24    25    1
     2    25    23    1
     3    23    21    1
     4    21    22    2
     5    21    15    1
     6    15    16   ar
     7    16    17   ar
     8    17    18   ar
     9     1    18    1
    10     1    26    1
    11    26    27   ar
    12    27    28   ar
    13    28    29   ar
    14    29    30    1
    15    29    31   ar
    16     1     2    1
    17     2     3    1
    18     3    32    1
    19    32    33   ar
    20    33    34   ar
    21    34    38    1
    22    38    39   ar
    23    39    40   ar
    24    40    41   ar
    25    41    42    1
    26    41    43   ar
    27    43    44   ar
    28    34    35   ar
    29    35    36   ar
    30     3     4    1
    31     4     5    1
    32     5     6    2
    33     6     7    1
    34     7     8    2
    35     8     9    1
    36     9    10    1
    37    10    11    2
    38    11    12    1
    39    12    13    2
    40    18    19   ar
    41    19    20   ar
    42    20    15   ar
    43     6     1    1
    44    13     8    1
    45    31    26   ar
    46    36    32   ar
    47    13     5    1
    48    44    38   ar
    49     2    14    1
    50    36    37    1
