@<TRIPOS>MOLECULE
*****
 20 21 0 0 0
SMALL
GASTEIGER

@<TRIPOS>ATOM
      1 C         138.1572  139.5603  162.5086 C.ar    1  UNL1        0.0282
      2 C         137.9303  140.5424  161.3979 C.ar    1  UNL1        0.0010
      3 C         137.7837  142.0030  161.7065 C.ar    1  UNL1        0.0113
      4 C         137.8641  142.4814  163.1258 C.ar    1  UNL1        0.0607
      5 CL        137.7175  143.9420  163.4345 Cl      1  UNL1       -0.0821
      6 C         138.0910  141.4992  164.2366 C.ar    1  UNL1        0.0486
      7 C         138.2376  140.0386  163.9279 C.ar    1  UNL1        0.1434
      8 C         138.3038  138.0997  162.1999 C.3     1  UNL1        0.0987
      9 C         140.8927  137.8934  162.1285 C.3     1  UNL1        0.0861
     10 N         139.5602  137.3748  162.5819 N.3     1  UNL1       -0.2925
     11 H         139.5862  137.3477  163.6012 H       1  UNL1        0.1236
     12 O         138.4645  139.0564  165.0388 O.3     1  UNL1       -0.4537
     13 C         139.5232  139.3199  166.0682 C.ar    1  UNL1        0.1462
     14 C         140.9713  139.1509  165.7152 C.ar    1  UNL1        0.0384
     15 C         142.0299  139.4144  166.7447 C.ar    1  UNL1        0.0154
     16 C         141.6405  139.8469  168.1272 C.ar    1  UNL1        0.0684
     17 CL        142.6991  140.1103  169.1567 Cl      1  UNL1       -0.0814
     18 C         140.1925  140.0159  168.4802 C.ar    1  UNL1        0.0712
     19 CL        139.8031  140.4484  169.8628 Cl      1  UNL1       -0.0813
     20 C         139.1338  139.7524  167.4507 C.ar    1  UNL1        0.0497
@<TRIPOS>BOND
     1     9    10    1
     2    10     8    1
     3     8     1    1
     4     1     2   ar
     5     2     3   ar
     6     3     4   ar
     7     4     5    1
     8     4     6   ar
     9     6     7   ar
    10     7    12    1
    11    12    13    1
    12    13    14   ar
    13    14    15   ar
    14    15    16   ar
    15    16    17    1
    16    16    18   ar
    17    18    19    1
    18    18    20   ar
    19     7     1   ar
    20    20    13   ar
    21    10    11    1
@<TRIPOS>MOLECULE
*****
 20 21 0 0 0
SMALL
GASTEIGER

@<TRIPOS>ATOM
      1 C         138.7098  142.7112  164.1742 C.ar    1  UNL1        0.0282
      2 C         138.5018  144.1576  163.8355 C.ar    1  UNL1        0.0010
      3 C         139.6807  145.0779  163.7201 C.ar    1  UNL1        0.0113
      4 C         141.0675  144.5518  163.9434 C.ar    1  UNL1        0.0607
      5 CL        142.2464  145.4721  163.8279 Cl      1  UNL1       -0.0821
      6 C         141.2755  143.1055  164.2821 C.ar    1  UNL1        0.0486
      7 C         140.0966  142.1852  164.3975 C.ar    1  UNL1        0.1434
      8 C         137.5309  141.7909  164.2897 C.3     1  UNL1        0.0987
      9 C         137.6530  140.7950  161.8932 C.3     1  UNL1        0.0861
     10 N         136.8430  141.2945  163.0526 N.3     1  UNL1       -0.2925
     11 H         136.2368  140.5266  163.3409 H       1  UNL1        0.1236
     12 O         140.3047  140.7387  164.7363 O.3     1  UNL1       -0.4537
     13 C         140.8134  140.3519  166.0933 C.ar    1  UNL1        0.1462
     14 C         142.1991  139.7980  166.2450 C.ar    1  UNL1        0.0384
     15 C         142.7078  139.4111  167.6020 C.ar    1  UNL1        0.0154
     16 C         141.8309  139.5782  168.8074 C.ar    1  UNL1        0.0684
     17 CL        142.3396  139.1914  170.1644 Cl      1  UNL1       -0.0814
     18 C         140.4452  140.1321  168.6558 C.ar    1  UNL1        0.0712
     19 CL        139.5682  140.2992  169.8612 Cl      1  UNL1       -0.0813
     20 C         139.9364  140.5190  167.2987 C.ar    1  UNL1        0.0497
@<TRIPOS>BOND
     1     9    10    1
     2    10     8    1
     3     8     1    1
     4     1     2   ar
     5     2     3   ar
     6     3     4   ar
     7     4     5    1
     8     4     6   ar
     9     6     7   ar
    10     7    12    1
    11    12    13    1
    12    13    14   ar
    13    14    15   ar
    14    15    16   ar
    15    16    17    1
    16    16    18   ar
    17    18    19    1
    18    18    20   ar
    19     7     1   ar
    20    20    13   ar
    21    10    11    1
@<TRIPOS>MOLECULE
*****
 20 21 0 0 0
SMALL
GASTEIGER

@<TRIPOS>ATOM
      1 C         141.4040  144.3237  163.8537 C.ar    1  UNL1        0.0282
      2 C         142.6360  145.0806  163.4547 C.ar    1  UNL1        0.0010
      3 C         143.9830  144.4289  163.5581 C.ar    1  UNL1        0.0113
      4 C         144.0981  143.0203  164.0606 C.ar    1  UNL1        0.0607
      5 CL        145.4451  142.3685  164.1640 Cl      1  UNL1       -0.0821
      6 C         142.8661  142.2634  164.4596 C.ar    1  UNL1        0.0486
      7 C         141.5190  142.9151  164.3561 C.ar    1  UNL1        0.1434
      8 C         140.0569  144.9755  163.7502 C.3     1  UNL1        0.0987
      9 C         137.7813  144.3765  164.8515 C.3     1  UNL1        0.0861
     10 N         139.1426  145.0004  164.9390 N.3     1  UNL1       -0.2925
     11 H         139.6341  144.5293  165.6985 H       1  UNL1        0.1236
     12 O         140.2870  142.1581  164.7551 O.3     1  UNL1       -0.4537
     13 C         140.1157  141.6979  166.1724 C.ar    1  UNL1        0.1462
     14 C         139.5701  140.3296  166.4560 C.ar    1  UNL1        0.0384
     15 C         139.3987  139.8694  167.8733 C.ar    1  UNL1        0.0154
     16 C         139.7730  140.7773  169.0071 C.ar    1  UNL1        0.0684
     17 CL        139.6016  140.3171  170.4244 Cl      1  UNL1       -0.0814
     18 C         140.3185  142.1455  168.7236 C.ar    1  UNL1        0.0712
     19 CL        140.6928  143.0534  169.8575 Cl      1  UNL1       -0.0813
     20 C         140.4899  142.6058  167.3063 C.ar    1  UNL1        0.0497
@<TRIPOS>BOND
     1     9    10    1
     2    10     8    1
     3     8     1    1
     4     1     2   ar
     5     2     3   ar
     6     3     4   ar
     7     4     5    1
     8     4     6   ar
     9     6     7   ar
    10     7    12    1
    11    12    13    1
    12    13    14   ar
    13    14    15   ar
    14    15    16   ar
    15    16    17    1
    16    16    18   ar
    17    18    19    1
    18    18    20   ar
    19     7     1   ar
    20    20    13   ar
    21    10    11    1
@<TRIPOS>MOLECULE
*****
 20 21 0 0 0
SMALL
GASTEIGER

@<TRIPOS>ATOM
      1 C         140.4188  139.0719  164.4970 C.ar    1  UNL1        0.0282
      2 C         139.7309  137.7410  164.4235 C.ar    1  UNL1        0.0010
      3 C         138.6340  137.4092  165.3913 C.ar    1  UNL1        0.0113
      4 C         138.2250  138.4082  166.4327 C.ar    1  UNL1        0.0607
      5 CL        137.1281  138.0764  167.4005 Cl      1  UNL1       -0.0821
      6 C         138.9129  139.7391  166.5062 C.ar    1  UNL1        0.0486
      7 C         140.0098  140.0710  165.5384 C.ar    1  UNL1        0.1434
      8 C         141.5157  139.4037  163.5292 C.3     1  UNL1        0.0987
      9 C         143.5583  138.8479  165.0353 C.3     1  UNL1        0.0861
     10 N         142.8862  139.7422  164.0361 N.3     1  UNL1       -0.2925
     11 H         143.4988  139.7865  163.2217 H       1  UNL1        0.1236
     12 O         140.6977  141.4020  165.6119 O.3     1  UNL1       -0.4537
     13 C         141.2725  141.8782  166.9129 C.ar    1  UNL1        0.1462
     14 C         142.6713  141.4980  167.2989 C.ar    1  UNL1        0.0384
     15 C         143.2461  141.9743  168.5999 C.ar    1  UNL1        0.0154
     16 C         142.4222  142.8308  169.5150 C.ar    1  UNL1        0.0684
     17 CL        142.9970  143.3071  170.8161 Cl      1  UNL1       -0.0814
     18 C         141.0234  143.2110  169.1292 C.ar    1  UNL1        0.0712
     19 CL        140.1995  144.0676  170.0444 Cl      1  UNL1       -0.0813
     20 C         140.4486  142.7348  167.8281 C.ar    1  UNL1        0.0497
@<TRIPOS>BOND
     1     9    10    1
     2    10     8    1
     3     8     1    1
     4     1     2   ar
     5     2     3   ar
     6     3     4   ar
     7     4     5    1
     8     4     6   ar
     9     6     7   ar
    10     7    12    1
    11    12    13    1
    12    13    14   ar
    13    14    15   ar
    14    15    16   ar
    15    16    17    1
    16    16    18   ar
    17    18    19    1
    18    18    20   ar
    19     7     1   ar
    20    20    13   ar
    21    10    11    1
@<TRIPOS>MOLECULE
*****
 20 21 0 0 0
SMALL
GASTEIGER

@<TRIPOS>ATOM
      1 C         140.5421  140.4729  167.1162 C.ar    1  UNL1        0.0282
      2 C         139.6989  139.9323  168.2327 C.ar    1  UNL1        0.0010
      3 C         139.4216  140.7779  169.4402 C.ar    1  UNL1        0.0113
      4 C         139.9875  142.1640  169.5312 C.ar    1  UNL1        0.0607
      5 CL        139.7101  143.0096  170.7387 Cl      1  UNL1       -0.0821
      6 C         140.8307  142.7046  168.4147 C.ar    1  UNL1        0.0486
      7 C         141.1081  141.8590  167.2072 C.ar    1  UNL1        0.1434
      8 C         140.8195  139.6273  165.9087 C.3     1  UNL1        0.0987
      9 C         143.2043  138.6904  166.3386 C.3     1  UNL1        0.0861
     10 N         142.2320  139.4114  165.4526 N.3     1  UNL1       -0.2925
     11 H         142.1826  138.8853  164.5802 H       1  UNL1        0.1236
     12 O         141.9514  142.3996  166.0906 O.3     1  UNL1       -0.4537
     13 C         141.3444  143.3121  165.0664 C.ar    1  UNL1        0.1462
     14 C         142.2220  144.2211  164.2578 C.ar    1  UNL1        0.0384
     15 C         141.6150  145.1336  163.2337 C.ar    1  UNL1        0.0154
     16 C         140.1306  145.1371  163.0180 C.ar    1  UNL1        0.0684
     17 CL        139.5237  146.0496  161.9939 Cl      1  UNL1       -0.0814
     18 C         139.2531  144.2282  163.8266 C.ar    1  UNL1        0.0712
     19 CL        137.7687  144.2317  163.6110 Cl      1  UNL1       -0.0813
     20 C         139.8600  143.3156  164.8508 C.ar    1  UNL1        0.0497
@<TRIPOS>BOND
     1     9    10    1
     2    10     8    1
     3     8     1    1
     4     1     2   ar
     5     2     3   ar
     6     3     4   ar
     7     4     5    1
     8     4     6   ar
     9     6     7   ar
    10     7    12    1
    11    12    13    1
    12    13    14   ar
    13    14    15   ar
    14    15    16   ar
    15    16    17    1
    16    16    18   ar
    17    18    19    1
    18    18    20   ar
    19     7     1   ar
    20    20    13   ar
    21    10    11    1
@<TRIPOS>MOLECULE
*****
 20 21 0 0 0
SMALL
GASTEIGER

@<TRIPOS>ATOM
      1 C         142.5058  143.9072  164.0922 C.ar    1  UNL1        0.0282
      2 C         141.7510  145.1414  163.6963 C.ar    1  UNL1        0.0010
      3 C         140.2669  145.2115  163.9027 C.ar    1  UNL1        0.0113
      4 C         139.5377  144.0473  164.5050 C.ar    1  UNL1        0.0607
      5 CL        138.0536  144.1173  164.7114 Cl      1  UNL1       -0.0821
      6 C         140.2925  142.8130  164.9008 C.ar    1  UNL1        0.0486
      7 C         141.7766  142.7429  164.6945 C.ar    1  UNL1        0.1434
      8 C         143.9899  143.8371  163.8858 C.3     1  UNL1        0.0987
      9 C         145.6548  141.8560  163.6550 C.3     1  UNL1        0.0861
     10 N         144.5821  142.7262  163.0702 N.3     1  UNL1       -0.2925
     11 H         143.8124  142.1098  162.8095 H       1  UNL1        0.1236
     12 O         142.5314  141.5086  165.0904 O.3     1  UNL1       -0.4537
     13 C         142.6400  141.1276  166.5370 C.ar    1  UNL1        0.1462
     14 C         142.4403  139.7005  166.9538 C.ar    1  UNL1        0.0384
     15 C         142.5489  139.3194  168.4005 C.ar    1  UNL1        0.0154
     16 C         142.8571  140.3654  169.4305 C.ar    1  UNL1        0.0684
     17 CL        142.9657  139.9844  170.8772 Cl      1  UNL1       -0.0814
     18 C         143.0568  141.7924  169.0138 C.ar    1  UNL1        0.0712
     19 CL        143.3651  142.8384  170.0438 Cl      1  UNL1       -0.0813
     20 C         142.9483  142.1735  167.5670 C.ar    1  UNL1        0.0497
@<TRIPOS>BOND
     1     9    10    1
     2    10     8    1
     3     8     1    1
     4     1     2   ar
     5     2     3   ar
     6     3     4   ar
     7     4     5    1
     8     4     6   ar
     9     6     7   ar
    10     7    12    1
    11    12    13    1
    12    13    14   ar
    13    14    15   ar
    14    15    16   ar
    15    16    17    1
    16    16    18   ar
    17    18    19    1
    18    18    20   ar
    19     7     1   ar
    20    20    13   ar
    21    10    11    1
@<TRIPOS>MOLECULE
*****
 20 21 0 0 0
SMALL
GASTEIGER

@<TRIPOS>ATOM
      1 C         139.4790  139.8934  167.7755 C.ar    1  UNL1        0.0282
      2 C         138.2186  139.1223  167.5175 C.ar    1  UNL1        0.0010
      3 C         138.0471  138.3751  166.2282 C.ar    1  UNL1        0.0113
      4 C         139.1360  138.3991  165.1969 C.ar    1  UNL1        0.0607
      5 CL        138.9644  137.6519  163.9076 Cl      1  UNL1       -0.0821
      6 C         140.3964  139.1703  165.4549 C.ar    1  UNL1        0.0486
      7 C         140.5679  139.9175  166.7442 C.ar    1  UNL1        0.1434
      8 C         139.6505  140.6406  169.0648 C.3     1  UNL1        0.0987
      9 C         140.1515  142.8567  170.3249 C.3     1  UNL1        0.0861
     10 N         140.1045  142.0702  169.0486 N.3     1  UNL1       -0.2925
     11 H         141.0495  142.0746  168.6649 H       1  UNL1        0.1236
     12 O         141.8284  140.6887  167.0021 O.3     1  UNL1       -0.4537
     13 C         142.2151  141.8188  166.0949 C.ar    1  UNL1        0.1462
     14 C         143.6565  142.0374  165.7416 C.ar    1  UNL1        0.0384
     15 C         144.0433  143.1675  164.8343 C.ar    1  UNL1        0.0154
     16 C         142.9887  144.0791  164.2803 C.ar    1  UNL1        0.0684
     17 CL        143.3754  145.2092  163.3730 Cl      1  UNL1       -0.0814
     18 C         141.5474  143.8605  164.6335 C.ar    1  UNL1        0.0712
     19 CL        140.4928  144.7721  164.0794 Cl      1  UNL1       -0.0813
     20 C         141.1606  142.7303  165.5408 C.ar    1  UNL1        0.0497
@<TRIPOS>BOND
     1     9    10    1
     2    10     8    1
     3     8     1    1
     4     1     2   ar
     5     2     3   ar
     6     3     4   ar
     7     4     5    1
     8     4     6   ar
     9     6     7   ar
    10     7    12    1
    11    12    13    1
    12    13    14   ar
    13    14    15   ar
    14    15    16   ar
    15    16    17    1
    16    16    18   ar
    17    18    19    1
    18    18    20   ar
    19     7     1   ar
    20    20    13   ar
    21    10    11    1
@<TRIPOS>MOLECULE
*****
 20 21 0 0 0
SMALL
GASTEIGER

@<TRIPOS>ATOM
      1 C         139.5890  139.8362  167.5659 C.ar    1  UNL1        0.0282
      2 C         138.3102  139.1040  167.2853 C.ar    1  UNL1        0.0010
      3 C         138.1264  138.3890  165.9795 C.ar    1  UNL1        0.0113
      4 C         139.2212  138.4062  164.9544 C.ar    1  UNL1        0.0607
      5 CL        139.0373  137.6911  163.6486 Cl      1  UNL1       -0.0821
      6 C         140.4999  139.1383  165.2350 C.ar    1  UNL1        0.0486
      7 C         140.6838  139.8533  166.5407 C.ar    1  UNL1        0.1434
      8 C         139.7728  140.5512  168.8716 C.3     1  UNL1        0.0987
      9 C         141.7396  139.3977  170.1172 C.3     1  UNL1        0.0861
     10 N         140.2983  139.8099  170.0651 N.3     1  UNL1       -0.2925
     11 H         140.1325  140.4043  170.8773 H       1  UNL1        0.1236
     12 O         141.9626  140.5855  166.8213 O.3     1  UNL1       -0.4537
     13 C         142.5342  141.5173  165.7941 C.ar    1  UNL1        0.1462
     14 C         141.7795  142.7520  165.3989 C.ar    1  UNL1        0.0384
     15 C         142.3511  143.6838  164.3718 C.ar    1  UNL1        0.0154
     16 C         143.6774  143.3809  163.7399 C.ar    1  UNL1        0.0684
     17 CL        144.2490  144.3127  162.7127 Cl      1  UNL1       -0.0814
     18 C         144.4320  142.1463  164.1350 C.ar    1  UNL1        0.0712
     19 CL        145.7583  141.8435  163.5030 Cl      1  UNL1       -0.0813
     20 C         143.8604  141.2145  165.1622 C.ar    1  UNL1        0.0497
@<TRIPOS>BOND
     1     9    10    1
     2    10     8    1
     3     8     1    1
     4     1     2   ar
     5     2     3   ar
     6     3     4   ar
     7     4     5    1
     8     4     6   ar
     9     6     7   ar
    10     7    12    1
    11    12    13    1
    12    13    14   ar
    13    14    15   ar
    14    15    16   ar
    15    16    17    1
    16    16    18   ar
    17    18    19    1
    18    18    20   ar
    19     7     1   ar
    20    20    13   ar
    21    10    11    1
@<TRIPOS>MOLECULE
*****
 20 21 0 0 0
SMALL
GASTEIGER

@<TRIPOS>ATOM
      1 C         139.3464  143.7771  164.2249 C.ar    1  UNL1        0.0282
      2 C         139.6030  145.0121  163.4132 C.ar    1  UNL1        0.0010
      3 C         141.0111  145.4468  163.1337 C.ar    1  UNL1        0.0113
      4 C         142.1627  144.6465  163.6659 C.ar    1  UNL1        0.0607
      5 CL        143.5709  145.0812  163.3864 Cl      1  UNL1       -0.0821
      6 C         141.9062  143.4115  164.4775 C.ar    1  UNL1        0.0486
      7 C         140.4981  142.9768  164.7570 C.ar    1  UNL1        0.1434
      8 C         137.9383  143.3424  164.5044 C.3     1  UNL1        0.0987
      9 C         137.4057  141.2686  163.0328 C.3     1  UNL1        0.0861
     10 N         137.5628  141.8949  164.3867 N.3     1  UNL1       -0.2925
     11 H         138.2832  141.3632  164.8753 H       1  UNL1        0.1236
     12 O         140.2415  141.7417  165.5688 O.3     1  UNL1       -0.4537
     13 C         140.6227  141.7047  167.0190 C.ar    1  UNL1        0.1462
     14 C         140.3963  142.9085  167.8849 C.ar    1  UNL1        0.0384
     15 C         140.7775  142.8716  169.3352 C.ar    1  UNL1        0.0154
     16 C         141.3850  141.6309  169.9196 C.ar    1  UNL1        0.0684
     17 CL        141.7661  141.5940  171.3699 Cl      1  UNL1       -0.0814
     18 C         141.6113  140.4272  169.0539 C.ar    1  UNL1        0.0712
     19 CL        142.2189  139.1865  169.6383 Cl      1  UNL1       -0.0813
     20 C         141.2302  140.4640  167.6035 C.ar    1  UNL1        0.0497
@<TRIPOS>BOND
     1     9    10    1
     2    10     8    1
     3     8     1    1
     4     1     2   ar
     5     2     3   ar
     6     3     4   ar
     7     4     5    1
     8     4     6   ar
     9     6     7   ar
    10     7    12    1
    11    12    13    1
    12    13    14   ar
    13    14    15   ar
    14    15    16   ar
    15    16    17    1
    16    16    18   ar
    17    18    19    1
    18    18    20   ar
    19     7     1   ar
    20    20    13   ar
    21    10    11    1
