@<TRIPOS>MOLECULE
*****
 29 32 0 0 0
SMALL
GASTEIGER

@<TRIPOS>ATOM
      1 S         139.6274  139.6036  165.9844 S.3     1  UNL1       -0.0653
      2 C         139.7949  140.3630  167.2670 C.ar    1  UNL1        0.1973
      3 N         139.6334  139.8048  168.6498 N.ar    1  UNL1       -0.1221
      4 N         139.8920  140.9109  169.6294 N.ar    1  UNL1       -0.1325
      5 C         140.2133  142.1529  168.8520 C.ar    1  UNL1        0.1479
      6 C         140.5377  143.4973  169.4327 C.3     1  UNL1        0.0742
      7 N         140.1533  141.8142  167.3919 N.ar    1  UNL1       -0.2724
      8 C         140.4071  142.7607  166.2562 C.ar    1  UNL1        0.0671
      9 C         139.3102  143.6616  165.7714 C.ar    1  UNL1        0.0207
     10 C         139.5641  144.6081  164.6357 C.ar    1  UNL1        0.0384
     11 C         140.9147  144.6536  163.9848 C.ar    1  UNL1        0.1388
     12 C         142.0117  143.7526  164.4697 C.ar    1  UNL1        0.0384
     13 C         141.7578  142.8062  165.6054 C.ar    1  UNL1        0.0207
     14 O         141.1685  145.6001  162.8491 O.3     1  UNL1       -0.4714
     15 C         140.0198  146.1273  162.0413 C.3     1  UNL1        0.2525
     16 C         138.3633  139.7441  165.1892 C.3     1  UNL1        0.1528
     17 C         139.0625  141.8861  162.0288 C.ar    1  UNL1        0.2033
     18 N         137.5648  141.9414  162.0909 N.ar    1  UNL1       -0.0560
     19 O         137.1206  141.1457  163.2824 O.2     1  UNL1       -0.3361
     20 C         138.3437  140.5987  163.9566 C.ar    1  UNL1        0.2480
     21 N         139.5439  141.0563  163.1819 N.ar    1  UNL1       -0.1900
     22 C         141.6560  143.8628  158.9277 C.ar    1  UNL1        0.1387
     23 C         140.1625  143.9078  158.7957 C.ar    1  UNL1        0.0370
     24 C         139.2980  143.2489  159.8294 C.ar    1  UNL1        0.0063
     25 C         139.9270  142.5450  160.9951 C.ar    1  UNL1        0.0393
     26 C         141.4205  142.5000  161.1271 C.ar    1  UNL1        0.0063
     27 C         142.2850  143.1589  160.0934 C.ar    1  UNL1        0.0370
     28 C         142.1632  145.8826  157.3744 C.3     1  UNL1        0.2525
     29 O         142.5205  144.5217  157.8940 O.3     1  UNL1       -0.4714
@<TRIPOS>BOND
     1    28    29    1
     2    29    22    1
     3    22    23   ar
     4    23    24   ar
     5    24    25   ar
     6    25    17    1
     7    17    18   ar
     8    18    19   ar
     9    19    20   ar
    10    20    16    1
    11    16     1    1
    12     1     2    1
    13     2     3   ar
    14     3     4   ar
    15     4     5   ar
    16     5     6    1
    17     5     7   ar
    18     7     8    1
    19     8     9   ar
    20     9    10   ar
    21    10    11   ar
    22    11    14    1
    23    14    15    1
    24    11    12   ar
    25    12    13   ar
    26    20    21   ar
    27    25    26   ar
    28    26    27   ar
    29    27    22   ar
    30    21    17   ar
    31     7     2   ar
    32    13     8   ar
@<TRIPOS>MOLECULE
*****
 29 32 0 0 0
SMALL
GASTEIGER

@<TRIPOS>ATOM
      1 S         138.7762  139.7338  166.3281 S.3     1  UNL1       -0.0653
      2 C         139.4886  139.7666  167.6476 C.ar    1  UNL1        0.1973
      3 N         138.8459  139.6669  168.9993 N.ar    1  UNL1       -0.1221
      4 N         139.9289  139.7435  170.0343 N.ar    1  UNL1       -0.1325
      5 C         141.2410  139.8906  169.3223 C.ar    1  UNL1        0.1479
      6 C         142.5885  140.0035  169.9713 C.3     1  UNL1        0.0742
      7 N         140.9688  139.9048  167.8472 N.ar    1  UNL1       -0.2724
      8 C         141.9965  140.0346  166.7623 C.ar    1  UNL1        0.0671
      9 C         142.7333  138.8210  166.2783 C.ar    1  UNL1        0.0207
     10 C         143.7610  138.9507  165.1934 C.ar    1  UNL1        0.0384
     11 C         144.0519  140.2940  164.5924 C.ar    1  UNL1        0.1388
     12 C         143.3150  141.5076  165.0765 C.ar    1  UNL1        0.0384
     13 C         142.2873  141.3779  166.1615 C.ar    1  UNL1        0.0207
     14 O         145.0796  140.4237  163.5075 O.3     1  UNL1       -0.4714
     15 C         145.7286  141.7501  163.2441 C.3     1  UNL1        0.2525
     16 C         138.7830  138.4811  165.5030 C.3     1  UNL1        0.1528
     17 C         141.0861  139.0176  162.4252 C.ar    1  UNL1        0.2033
     18 N         140.6726  137.5887  162.2322 N.ar    1  UNL1       -0.0560
     19 O         139.7595  137.2138  163.3617 O.2     1  UNL1       -0.3361
     20 C         139.6087  138.4110  164.2527 C.ar    1  UNL1        0.2480
     21 N         140.4286  139.5258  163.6739 N.ar    1  UNL1       -0.1900
     22 C         143.8194  141.3671  159.7309 C.ar    1  UNL1        0.1387
     23 C         143.8203  139.8681  159.6773 C.ar    1  UNL1        0.0370
     24 C         142.9093  139.0849  160.5754 C.ar    1  UNL1        0.0063
     25 C         141.9972  139.8007  161.5271 C.ar    1  UNL1        0.0393
     26 C         141.9963  141.2998  161.5806 C.ar    1  UNL1        0.0063
     27 C         142.9073  142.0829  160.6825 C.ar    1  UNL1        0.0370
     28 C         144.2679  142.5563  157.4649 C.3     1  UNL1        0.2525
     29 O         144.7305  142.1503  158.8328 O.3     1  UNL1       -0.4714
@<TRIPOS>BOND
     1    28    29    1
     2    29    22    1
     3    22    23   ar
     4    23    24   ar
     5    24    25   ar
     6    25    17    1
     7    17    18   ar
     8    18    19   ar
     9    19    20   ar
    10    20    16    1
    11    16     1    1
    12     1     2    1
    13     2     3   ar
    14     3     4   ar
    15     4     5   ar
    16     5     6    1
    17     5     7   ar
    18     7     8    1
    19     8     9   ar
    20     9    10   ar
    21    10    11   ar
    22    11    14    1
    23    14    15    1
    24    11    12   ar
    25    12    13   ar
    26    20    21   ar
    27    25    26   ar
    28    26    27   ar
    29    27    22   ar
    30    21    17   ar
    31     7     2   ar
    32    13     8   ar
@<TRIPOS>MOLECULE
*****
 29 32 0 0 0
SMALL
GASTEIGER

@<TRIPOS>ATOM
      1 S         143.0625  139.2937  166.4936 S.3     1  UNL1       -0.0653
      2 C         142.2772  139.4891  167.7565 C.ar    1  UNL1        0.1973
      3 N         142.7516  139.1828  169.1461 N.ar    1  UNL1       -0.1221
      4 N         141.6471  139.5296  170.1000 N.ar    1  UNL1       -0.1325
      5 C         140.4900  140.0502  169.2999 C.ar    1  UNL1        0.1479
      6 C         139.1746  140.5142  169.8513 C.3     1  UNL1        0.0742
      7 N         140.8794  140.0252  167.8515 N.ar    1  UNL1       -0.2724
      8 C         140.0217  140.4599  166.7003 C.ar    1  UNL1        0.0671
      9 C         138.9638  139.5413  166.1645 C.ar    1  UNL1        0.0207
     10 C         138.1060  139.9761  165.0134 C.ar    1  UNL1        0.0384
     11 C         138.3061  141.3293  164.3979 C.ar    1  UNL1        0.1388
     12 C         139.3640  142.2479  164.9338 C.ar    1  UNL1        0.0384
     13 C         140.2218  141.8131  166.0850 C.ar    1  UNL1        0.0207
     14 O         137.4483  141.7640  163.2467 O.3     1  UNL1       -0.4714
     15 C         137.7518  143.0446  162.5270 C.3     1  UNL1        0.2525
     16 C         142.8914  138.0382  165.6908 C.3     1  UNL1        0.1528
     17 C         140.6232  138.7280  162.6175 C.ar    1  UNL1        0.2033
     18 N         140.4156  137.2545  162.8061 N.ar    1  UNL1       -0.0560
     19 O         141.2400  136.8167  163.9803 O.2     1  UNL1       -0.3361
     20 C         141.9571  138.0197  164.5174 C.ar    1  UNL1        0.2480
     21 N         141.5760  139.2009  163.6752 N.ar    1  UNL1       -0.1900
     22 C         138.7218  141.2815  159.4372 C.ar    1  UNL1        0.1387
     23 C         140.0915  141.6167  159.9486 C.ar    1  UNL1        0.0370
     24 C         140.7253  140.7655  161.0088 C.ar    1  UNL1        0.0063
     25 C         139.9894  139.5792  161.5574 C.ar    1  UNL1        0.0393
     26 C         138.6198  139.2440  161.0459 C.ar    1  UNL1        0.0063
     27 C         137.9860  140.0952  159.9858 C.ar    1  UNL1        0.0370
     28 C         138.8894  143.2014  157.6949 C.3     1  UNL1        0.2525
     29 O         138.0880  142.1327  158.3771 O.3     1  UNL1       -0.4714
@<TRIPOS>BOND
     1    28    29    1
     2    29    22    1
     3    22    23   ar
     4    23    24   ar
     5    24    25   ar
     6    25    17    1
     7    17    18   ar
     8    18    19   ar
     9    19    20   ar
    10    20    16    1
    11    16     1    1
    12     1     2    1
    13     2     3   ar
    14     3     4   ar
    15     4     5   ar
    16     5     6    1
    17     5     7   ar
    18     7     8    1
    19     8     9   ar
    20     9    10   ar
    21    10    11   ar
    22    11    14    1
    23    14    15    1
    24    11    12   ar
    25    12    13   ar
    26    20    21   ar
    27    25    26   ar
    28    26    27   ar
    29    27    22   ar
    30    21    17   ar
    31     7     2   ar
    32    13     8   ar
@<TRIPOS>MOLECULE
*****
 29 32 0 0 0
SMALL
GASTEIGER

@<TRIPOS>ATOM
      1 S         138.8441  139.6722  166.3694 S.3     1  UNL1       -0.0653
      2 C         139.5282  139.7525  167.7018 C.ar    1  UNL1        0.1973
      3 N         138.8586  139.6850  169.0424 N.ar    1  UNL1       -0.1221
      4 N         139.9187  139.8051  170.0967 N.ar    1  UNL1       -0.1325
      5 C         141.2436  139.9468  169.4079 C.ar    1  UNL1        0.1479
      6 C         142.5759  140.0951  170.0809 C.3     1  UNL1        0.0742
      7 N         141.0023  139.9143  167.9277 N.ar    1  UNL1       -0.2724
      8 C         142.0509  140.0242  166.8609 C.ar    1  UNL1        0.0671
      9 C         142.3769  141.3615  166.2646 C.ar    1  UNL1        0.0207
     10 C         143.4255  141.4714  165.1978 C.ar    1  UNL1        0.0384
     11 C         144.1483  140.2442  164.7270 C.ar    1  UNL1        0.1388
     12 C         143.8223  138.9069  165.3233 C.ar    1  UNL1        0.0384
     13 C         142.7736  138.7969  166.3902 C.ar    1  UNL1        0.0207
     14 O         145.1969  140.3542  163.6602 O.3     1  UNL1       -0.4714
     15 C         145.7465  141.6984  163.2846 C.3     1  UNL1        0.2525
     16 C         138.7878  138.3668  165.6327 C.3     1  UNL1        0.1528
     17 C         140.4426  138.6080  162.1300 C.ar    1  UNL1        0.2033
     18 N         139.2256  137.7877  161.8198 N.ar    1  UNL1       -0.0560
     19 O         138.4576  137.5975  163.0942 O.2     1  UNL1       -0.3361
     20 C         139.1999  138.3002  164.1920 C.ar    1  UNL1        0.2480
     21 N         140.4266  138.9247  163.5961 N.ar    1  UNL1       -0.1900
     22 C         143.5886  139.8930  159.1803 C.ar    1  UNL1        0.1387
     23 C         143.9867  139.1798  160.4384 C.ar    1  UNL1        0.0370
     24 C         142.9380  138.7515  161.4216 C.ar    1  UNL1        0.0063
     25 C         141.4912  139.0363  161.1468 C.ar    1  UNL1        0.0393
     26 C         141.0932  139.7495  159.8887 C.ar    1  UNL1        0.0063
     27 C         142.1418  140.1779  158.9055 C.ar    1  UNL1        0.0370
     28 C         144.3301  140.3299  156.7289 C.3     1  UNL1        0.2525
     29 O         144.6373  140.3213  158.1971 O.3     1  UNL1       -0.4714
@<TRIPOS>BOND
     1    28    29    1
     2    29    22    1
     3    22    23   ar
     4    23    24   ar
     5    24    25   ar
     6    25    17    1
     7    17    18   ar
     8    18    19   ar
     9    19    20   ar
    10    20    16    1
    11    16     1    1
    12     1     2    1
    13     2     3   ar
    14     3     4   ar
    15     4     5   ar
    16     5     6    1
    17     5     7   ar
    18     7     8    1
    19     8     9   ar
    20     9    10   ar
    21    10    11   ar
    22    11    14    1
    23    14    15    1
    24    11    12   ar
    25    12    13   ar
    26    20    21   ar
    27    25    26   ar
    28    26    27   ar
    29    27    22   ar
    30    21    17   ar
    31     7     2   ar
    32    13     8   ar
@<TRIPOS>MOLECULE
*****
 29 32 0 0 0
SMALL
GASTEIGER

@<TRIPOS>ATOM
      1 S         140.2268  145.1609  162.5729 S.3     1  UNL1       -0.0653
      2 C         139.9361  144.6512  161.1925 C.ar    1  UNL1        0.1973
      3 N         140.0740  145.4297  159.9178 N.ar    1  UNL1       -0.1221
      4 N         139.6794  144.5330  158.7819 N.ar    1  UNL1       -0.1325
      5 C         139.2976  143.2002  159.3546 C.ar    1  UNL1        0.1479
      6 C         138.8379  142.0044  158.5745 C.3     1  UNL1        0.0742
      7 N         139.4562  143.2733  160.8444 N.ar    1  UNL1       -0.2724
      8 C         139.1830  142.1633  161.8156 C.ar    1  UNL1        0.0671
      9 C         140.2687  141.1898  162.1668 C.ar    1  UNL1        0.0207
     10 C         139.9955  140.0798  163.1379 C.ar    1  UNL1        0.0384
     11 C         138.6365  139.9432  163.7580 C.ar    1  UNL1        0.1388
     12 C         137.5506  140.9167  163.4068 C.ar    1  UNL1        0.0384
     13 C         137.8239  142.0268  162.4356 C.ar    1  UNL1        0.0207
     14 O         138.3632  138.8332  164.7292 O.3     1  UNL1       -0.4714
     15 C         139.3673  137.7342  164.9139 C.3     1  UNL1        0.2525
     16 C         141.5962  144.9924  163.1616 C.3     1  UNL1        0.1528
     17 C         141.3956  142.6549  166.2537 C.ar    1  UNL1        0.2033
     18 N         142.8616  142.5974  165.9415 N.ar    1  UNL1       -0.0560
     19 O         143.1152  143.4660  164.7452 O.2     1  UNL1       -0.3361
     20 C         141.8059  144.0604  164.3180 C.ar    1  UNL1        0.2480
     21 N         140.7432  143.5591  165.2503 N.ar    1  UNL1       -0.1900
     22 C         139.3194  140.4943  169.6110 C.ar    1  UNL1        0.1387
     23 C         139.3940  139.8692  168.2495 C.ar    1  UNL1        0.0370
     24 C         140.0861  140.5894  167.1304 C.ar    1  UNL1        0.0063
     25 C         140.7035  141.9347  167.3728 C.ar    1  UNL1        0.0393
     26 C         140.6289  142.5598  168.7343 C.ar    1  UNL1        0.0063
     27 C         139.9369  141.8396  169.8533 C.ar    1  UNL1        0.0370
     28 C         137.1752  139.4186  170.6086 C.3     1  UNL1        0.2525
     29 O         138.6274  139.7741  170.7301 O.3     1  UNL1       -0.4714
@<TRIPOS>BOND
     1    28    29    1
     2    29    22    1
     3    22    23   ar
     4    23    24   ar
     5    24    25   ar
     6    25    17    1
     7    17    18   ar
     8    18    19   ar
     9    19    20   ar
    10    20    16    1
    11    16     1    1
    12     1     2    1
    13     2     3   ar
    14     3     4   ar
    15     4     5   ar
    16     5     6    1
    17     5     7   ar
    18     7     8    1
    19     8     9   ar
    20     9    10   ar
    21    10    11   ar
    22    11    14    1
    23    14    15    1
    24    11    12   ar
    25    12    13   ar
    26    20    21   ar
    27    25    26   ar
    28    26    27   ar
    29    27    22   ar
    30    21    17   ar
    31     7     2   ar
    32    13     8   ar
@<TRIPOS>MOLECULE
*****
 29 32 0 0 0
SMALL
GASTEIGER

@<TRIPOS>ATOM
      1 S         139.3250  139.1923  166.8724 S.3     1  UNL1       -0.0653
      2 C         139.4445  140.1429  168.0265 C.ar    1  UNL1        0.1973
      3 N         138.7985  139.9832  169.3708 N.ar    1  UNL1       -0.1221
      4 N         139.1856  141.1618  170.2141 N.ar    1  UNL1       -0.1325
      5 C         140.0709  142.0500  169.3909 C.ar    1  UNL1        0.1479
      6 C         140.6879  143.3410  169.8407 C.3     1  UNL1        0.0742
      7 N         140.2309  141.4202  168.0389 N.ar    1  UNL1       -0.2724
      8 C         141.0359  141.9710  166.8994 C.ar    1  UNL1        0.0671
      9 C         142.3851  141.3949  166.5868 C.ar    1  UNL1        0.0207
     10 C         143.1901  141.9458  165.4473 C.ar    1  UNL1        0.0384
     11 C         142.6460  143.0727  164.6203 C.ar    1  UNL1        0.1388
     12 C         141.2967  143.6489  164.9329 C.ar    1  UNL1        0.0384
     13 C         140.4917  143.0980  166.0724 C.ar    1  UNL1        0.0207
     14 O         143.4510  143.6236  163.4808 O.3     1  UNL1       -0.4714
     15 C         143.6439  145.1051  163.3461 C.3     1  UNL1        0.2525
     16 C         138.2178  139.3596  165.8744 C.3     1  UNL1        0.1528
     17 C         139.5391  141.3004  162.7836 C.ar    1  UNL1        0.2033
     18 N         138.0588  141.4912  162.6346 N.ar    1  UNL1       -0.0560
     19 O         137.3836  140.7874  163.7742 O.2     1  UNL1       -0.3361
     20 C         138.4467  140.1617  164.6277 C.ar    1  UNL1        0.2480
     21 N         139.7788  140.4787  164.0154 N.ar    1  UNL1       -0.1900
     22 C         142.7051  142.9105  160.0206 C.ar    1  UNL1        0.1387
     23 C         141.5049  143.7462  160.3539 C.ar    1  UNL1        0.0370
     24 C         140.4496  143.2095  161.2749 C.ar    1  UNL1        0.0063
     25 C         140.5945  141.8371  161.8626 C.ar    1  UNL1        0.0393
     26 C         141.7946  141.0014  161.5294 C.ar    1  UNL1        0.0063
     27 C         142.8500  141.5381  160.6084 C.ar    1  UNL1        0.0370
     28 C         144.7360  142.5109  158.4503 C.3     1  UNL1        0.2525
     29 O         143.7604  143.4472  159.0996 O.3     1  UNL1       -0.4714
@<TRIPOS>BOND
     1    28    29    1
     2    29    22    1
     3    22    23   ar
     4    23    24   ar
     5    24    25   ar
     6    25    17    1
     7    17    18   ar
     8    18    19   ar
     9    19    20   ar
    10    20    16    1
    11    16     1    1
    12     1     2    1
    13     2     3   ar
    14     3     4   ar
    15     4     5   ar
    16     5     6    1
    17     5     7   ar
    18     7     8    1
    19     8     9   ar
    20     9    10   ar
    21    10    11   ar
    22    11    14    1
    23    14    15    1
    24    11    12   ar
    25    12    13   ar
    26    20    21   ar
    27    25    26   ar
    28    26    27   ar
    29    27    22   ar
    30    21    17   ar
    31     7     2   ar
    32    13     8   ar
@<TRIPOS>MOLECULE
*****
 29 32 0 0 0
SMALL
GASTEIGER

@<TRIPOS>ATOM
      1 S         141.1513  139.2829  170.0488 S.3     1  UNL1       -0.0653
      2 C         140.8143  140.6750  170.4941 C.ar    1  UNL1        0.1973
      3 N         140.4701  141.0943  171.8925 N.ar    1  UNL1       -0.1221
      4 N         140.2053  142.5707  171.8819 N.ar    1  UNL1       -0.1325
      5 C         140.3858  143.0639  170.4767 C.ar    1  UNL1        0.1479
      6 C         140.2192  144.4799  170.0111 C.3     1  UNL1        0.0742
      7 N         140.7622  141.8922  169.6191 N.ar    1  UNL1       -0.2724
      8 C         141.0381  141.9310  168.1452 C.ar    1  UNL1        0.0671
      9 C         142.3488  142.4582  167.6412 C.ar    1  UNL1        0.0207
     10 C         142.6246  142.4970  166.1673 C.ar    1  UNL1        0.0384
     11 C         141.5899  142.0087  165.1973 C.ar    1  UNL1        0.1388
     12 C         140.2791  141.4815  165.7014 C.ar    1  UNL1        0.0384
     13 C         140.0032  141.4426  167.1753 C.ar    1  UNL1        0.0207
     14 O         141.8657  142.0475  163.7234 O.3     1  UNL1       -0.4714
     15 C         140.7277  142.0220  162.7466 C.3     1  UNL1        0.2525
     16 C         142.5857  138.8628  169.9217 C.3     1  UNL1        0.1528
     17 C         143.6180  138.5237  166.1955 C.ar    1  UNL1        0.2033
     18 N         144.4057  137.4087  166.8171 N.ar    1  UNL1       -0.0560
     19 O         144.1149  137.4000  168.2886 O.2     1  UNL1       -0.3361
     20 C         143.1475  138.5096  168.5765 C.ar    1  UNL1        0.2480
     21 N         142.8404  139.2040  167.2828 N.ar    1  UNL1       -0.1900
     22 C         143.5924  139.6326  161.8343 C.ar    1  UNL1        0.1387
     23 C         144.6672  140.1623  162.7366 C.ar    1  UNL1        0.0370
     24 C         144.6758  139.7926  164.1903 C.ar    1  UNL1        0.0063
     25 C         143.6095  138.8933  164.7418 C.ar    1  UNL1        0.0393
     26 C         142.5346  138.3636  163.8395 C.ar    1  UNL1        0.0063
     27 C         142.5261  138.7333  162.3858 C.ar    1  UNL1        0.0370
     28 C         143.1804  138.9885  159.3513 C.3     1  UNL1        0.2525
     29 O         143.5838  140.0023  160.3806 O.3     1  UNL1       -0.4714
@<TRIPOS>BOND
     1    28    29    1
     2    29    22    1
     3    22    23   ar
     4    23    24   ar
     5    24    25   ar
     6    25    17    1
     7    17    18   ar
     8    18    19   ar
     9    19    20   ar
    10    20    16    1
    11    16     1    1
    12     1     2    1
    13     2     3   ar
    14     3     4   ar
    15     4     5   ar
    16     5     6    1
    17     5     7   ar
    18     7     8    1
    19     8     9   ar
    20     9    10   ar
    21    10    11   ar
    22    11    14    1
    23    14    15    1
    24    11    12   ar
    25    12    13   ar
    26    20    21   ar
    27    25    26   ar
    28    26    27   ar
    29    27    22   ar
    30    21    17   ar
    31     7     2   ar
    32    13     8   ar
@<TRIPOS>MOLECULE
*****
 29 32 0 0 0
SMALL
GASTEIGER

@<TRIPOS>ATOM
      1 S         140.0143  145.6999  160.9409 S.3     1  UNL1       -0.0653
      2 C         140.9477  144.9925  160.0038 C.ar    1  UNL1        0.1973
      3 N         141.8615  145.6458  159.0096 N.ar    1  UNL1       -0.1221
      4 N         142.6097  144.5647  158.2876 N.ar    1  UNL1       -0.1325
      5 C         142.1584  143.2432  158.8355 C.ar    1  UNL1        0.1479
      6 C         142.6482  141.8943  158.3993 C.3     1  UNL1        0.0742
      7 N         141.1312  143.5077  159.8961 N.ar    1  UNL1       -0.2724
      8 C         140.4135  142.4696  160.7068 C.ar    1  UNL1        0.0671
      9 C         138.9549  142.2106  160.4716 C.ar    1  UNL1        0.0207
     10 C         138.2372  141.1724  161.2822 C.ar    1  UNL1        0.0384
     11 C         138.9781  140.3932  162.3282 C.ar    1  UNL1        0.1388
     12 C         140.4368  140.6522  162.5634 C.ar    1  UNL1        0.0384
     13 C         141.1544  141.6904  161.7527 C.ar    1  UNL1        0.0207
     14 O         138.2604  139.3551  163.1388 O.3     1  UNL1       -0.4714
     15 C         138.7542  137.9387  163.1497 C.3     1  UNL1        0.2525
     16 C         140.3384  145.7803  162.4033 C.3     1  UNL1        0.1528
     17 C         139.5564  143.1475  165.1460 C.ar    1  UNL1        0.2033
     18 N         138.2140  143.2929  164.4927 N.ar    1  UNL1       -0.0560
     19 O         138.3435  144.2969  163.3857 O.2     1  UNL1       -0.3361
     20 C         139.7660  144.7719  163.3549 C.ar    1  UNL1        0.2480
     21 N         140.5155  144.0616  164.4428 N.ar    1  UNL1       -0.1900
     22 C         140.5344  140.4437  168.6077 C.ar    1  UNL1        0.1387
     23 C         140.8050  141.9158  168.7061 C.ar    1  UNL1        0.0370
     24 C         140.4790  142.8170  167.5522 C.ar    1  UNL1        0.0063
     25 C         139.8824  142.2462  166.2999 C.ar    1  UNL1        0.0393
     26 C         139.6118  140.7742  166.2016 C.ar    1  UNL1        0.0063
     27 C         139.9378  139.8729  167.3554 C.ar    1  UNL1        0.0370
     28 C         142.2616  139.0411  169.9491 C.3     1  UNL1        0.2525
     29 O         140.8603  139.5425  169.7616 O.3     1  UNL1       -0.4714
@<TRIPOS>BOND
     1    28    29    1
     2    29    22    1
     3    22    23   ar
     4    23    24   ar
     5    24    25   ar
     6    25    17    1
     7    17    18   ar
     8    18    19   ar
     9    19    20   ar
    10    20    16    1
    11    16     1    1
    12     1     2    1
    13     2     3   ar
    14     3     4   ar
    15     4     5   ar
    16     5     6    1
    17     5     7   ar
    18     7     8    1
    19     8     9   ar
    20     9    10   ar
    21    10    11   ar
    22    11    14    1
    23    14    15    1
    24    11    12   ar
    25    12    13   ar
    26    20    21   ar
    27    25    26   ar
    28    26    27   ar
    29    27    22   ar
    30    21    17   ar
    31     7     2   ar
    32    13     8   ar
@<TRIPOS>MOLECULE
*****
 29 32 0 0 0
SMALL
GASTEIGER

@<TRIPOS>ATOM
      1 S         143.2573  139.0438  165.1105 S.3     1  UNL1       -0.0653
      2 C         143.0786  139.5573  166.5085 C.ar    1  UNL1        0.1973
      3 N         143.2188  138.7540  167.7675 N.ar    1  UNL1       -0.1221
      4 N         142.9552  139.6645  168.9301 N.ar    1  UNL1       -0.1325
      5 C         142.6522  141.0306  168.3895 C.ar    1  UNL1        0.1479
      6 C         142.3296  142.2489  169.2028 C.3     1  UNL1        0.0742
      7 N         142.7285  140.9643  166.8929 N.ar    1  UNL1       -0.2724
      8 C         142.4956  142.1048  165.9469 C.ar    1  UNL1        0.0671
      9 C         141.1001  142.4521  165.5202 C.ar    1  UNL1        0.0207
     10 C         140.8672  143.5926  164.5741 C.ar    1  UNL1        0.0384
     11 C         142.0296  144.3859  164.0548 C.ar    1  UNL1        0.1388
     12 C         143.4251  144.0385  164.4816 C.ar    1  UNL1        0.0384
     13 C         143.6580  142.8980  165.4276 C.ar    1  UNL1        0.0207
     14 O         141.7966  145.5264  163.1088 O.3     1  UNL1       -0.4714
     15 C         140.4730  145.6689  162.4176 C.3     1  UNL1        0.2525
     16 C         144.5162  139.3495  164.3545 C.3     1  UNL1        0.1528
     17 C         143.7553  141.8314  161.4689 C.ar    1  UNL1        0.2033
     18 N         145.2163  142.0864  161.6928 N.ar    1  UNL1       -0.0560
     19 O         145.6793  141.1878  162.8011 O.2     1  UNL1       -0.3361
     20 C         144.5043  140.3773  163.2620 C.ar    1  UNL1        0.2480
     21 N         143.3152  140.7750  162.4387 N.ar    1  UNL1       -0.1900
     22 C         141.1497  143.8761  158.4225 C.ar    1  UNL1        0.1387
     23 C         142.6293  143.7752  158.1973 C.ar    1  UNL1        0.0370
     24 C         143.4978  143.0937  159.2127 C.ar    1  UNL1        0.0063
     25 C         142.8868  142.5129  160.4534 C.ar    1  UNL1        0.0393
     26 C         141.4072  142.6138  160.6786 C.ar    1  UNL1        0.0063
     27 C         140.5387  143.2953  159.6632 C.ar    1  UNL1        0.0370
     28 C         140.3126  146.0515  157.2750 C.3     1  UNL1        0.2525
     29 O         140.2812  144.5576  157.4070 O.3     1  UNL1       -0.4714
@<TRIPOS>BOND
     1    28    29    1
     2    29    22    1
     3    22    23   ar
     4    23    24   ar
     5    24    25   ar
     6    25    17    1
     7    17    18   ar
     8    18    19   ar
     9    19    20   ar
    10    20    16    1
    11    16     1    1
    12     1     2    1
    13     2     3   ar
    14     3     4   ar
    15     4     5   ar
    16     5     6    1
    17     5     7   ar
    18     7     8    1
    19     8     9   ar
    20     9    10   ar
    21    10    11   ar
    22    11    14    1
    23    14    15    1
    24    11    12   ar
    25    12    13   ar
    26    20    21   ar
    27    25    26   ar
    28    26    27   ar
    29    27    22   ar
    30    21    17   ar
    31     7     2   ar
    32    13     8   ar
