@<TRIPOS>MOLECULE
*****
 31 34 0 0 0
SMALL
GASTEIGER

@<TRIPOS>ATOM
      1 C         142.3047  136.7998  155.3484 C.3     1  UNL1        0.0137
      2 C         141.6567  137.4341  156.5433 C.3     1  UNL1        0.0932
      3 C         143.0593  137.8322  156.8958 C.3     1  UNL1        0.0137
      4 C         140.3896  136.9034  155.9411 C.2     1  UNL1        0.2302
      5 O         140.2796  136.1206  154.6663 O.2     1  UNL1       -0.2744
      6 N         139.2517  137.2930  156.8375 N.am    1  UNL1       -0.2692
      7 C         139.8156  138.0645  157.9937 C.ar    1  UNL1        0.1363
      8 N         139.1677  138.6988  159.1886 N.ar    1  UNL1       -0.1951
      9 C         140.0061  139.4204  160.2016 C.ar    1  UNL1        0.2553
     10 N         141.4925  139.5076  160.0198 N.ar    1  UNL1       -0.1957
     11 C         142.1404  138.8733  158.8250 C.ar    1  UNL1        0.1276
     12 N         143.6268  138.9605  158.6432 N.pl3   1  UNL1       -0.3427
     13 C         141.3020  138.1517  157.8119 C.ar    1  UNL1        0.0484
     14 H         138.3016  137.0798  156.6924 H       1  UNL1        0.1563
     15 H         144.1771  139.4341  159.3081 H       1  UNL1        0.1437
     16 H         144.0521  138.5442  157.8589 H       1  UNL1        0.1437
     17 N         139.3582  140.0547  161.3966 N.ar    1  UNL1       -0.1967
     18 N         138.7981  141.4447  161.4617 N.ar    1  UNL1       -0.1670
     19 C         138.2503  141.6596  162.8415 C.ar    1  UNL1        0.0807
     20 C         138.4719  140.4023  163.6291 C.ar    1  UNL1        0.0330
     21 C         138.1386  140.0325  165.0441 C.ar    1  UNL1        0.0027
     22 C         138.4901  138.6709  165.5660 C.ar    1  UNL1        0.0001
     23 C         139.1748  137.6790  164.6730 C.ar    1  UNL1        0.0015
     24 C         139.5080  138.0489  163.2580 C.ar    1  UNL1        0.0193
     25 C         139.1566  139.4105  162.7361 C.ar    1  UNL1        0.0870
     26 C         137.5959  142.9118  163.3452 C.3     1  UNL1        0.0564
     27 C         138.4175  144.1440  163.5827 C.3     1  UNL1        0.1097
     28 C         138.4751  144.7548  164.9514 C.3     1  UNL1        0.3982
     29 F         138.5327  145.3656  166.3202 F       1  UNL1       -0.1700
     30 F         139.9193  145.0988  164.7372 F       1  UNL1       -0.1700
     31 F         137.0309  144.4109  165.1657 F       1  UNL1       -0.1700
@<TRIPOS>BOND
     1     1     2    1
     2     2     3    1
     3     2     4    1
     4     4     5    2
     5     4     6   am
     6     6     7    1
     7     7     8   ar
     8     8     9   ar
     9     9    17    1
    10    17    18   ar
    11    18    19   ar
    12    19    26    1
    13    26    27    1
    14    27    28    1
    15    28    29    1
    16    28    30    1
    17    28    31    1
    18    19    20   ar
    19    20    21   ar
    20    21    22   ar
    21    22    23   ar
    22    23    24   ar
    23    24    25   ar
    24     9    10   ar
    25    10    11   ar
    26    11    12    1
    27    11    13   ar
    28    13     2    1
    29    13     7   ar
    30    25    17   ar
    31    25    20   ar
    32     6    14    1
    33    12    15    1
    34    12    16    1
@<TRIPOS>MOLECULE
*****
 31 34 0 0 0
SMALL
GASTEIGER

@<TRIPOS>ATOM
      1 C         140.2989  144.5334  157.9535 C.3     1  UNL1        0.0137
      2 C         140.3805  144.0985  159.3868 C.3     1  UNL1        0.0932
      3 C         139.2539  143.1830  159.0091 C.3     1  UNL1        0.0137
      4 C         141.4901  145.1049  159.4648 C.2     1  UNL1        0.2302
      5 O         141.9815  145.9646  158.3380 O.2     1  UNL1       -0.2744
      6 N         142.0219  145.1006  160.8673 N.am    1  UNL1       -0.2692
      7 C         141.2411  144.0916  161.6561 C.ar    1  UNL1        0.1363
      8 N         141.3228  143.6568  163.0894 N.ar    1  UNL1       -0.1951
      9 C         140.3900  142.6026  163.6076 C.ar    1  UNL1        0.2553
     10 N         139.3755  141.9833  162.6925 N.ar    1  UNL1       -0.1957
     11 C         139.2939  142.4181  161.2593 C.ar    1  UNL1        0.1276
     12 N         138.2794  141.7987  160.3443 N.pl3   1  UNL1       -0.3427
     13 C         140.2267  143.4723  160.7411 C.ar    1  UNL1        0.0484
     14 H         142.7548  145.6616  161.2099 H       1  UNL1        0.1563
     15 H         137.6672  141.1068  160.6844 H       1  UNL1        0.1437
     16 H         138.2258  142.0841  159.4036 H       1  UNL1        0.1437
     17 N         140.4716  142.1678  165.0409 N.ar    1  UNL1       -0.1967
     18 N         141.3810  142.7426  166.0862 N.ar    1  UNL1       -0.1670
     19 C         141.1297  142.0119  167.3719 C.ar    1  UNL1        0.0807
     20 C         140.0650  140.9854  167.1211 C.ar    1  UNL1        0.0330
     21 C         139.4133  139.9754  168.0183 C.ar    1  UNL1        0.0027
     22 C         138.3550  139.0618  167.4751 C.ar    1  UNL1        0.0001
     23 C         137.9483  139.1581  166.0344 C.ar    1  UNL1        0.0015
     24 C         138.6000  140.1681  165.1371 C.ar    1  UNL1        0.0193
     25 C         139.6583  141.0818  165.6805 C.ar    1  UNL1        0.0870
     26 C         141.8215  142.2635  168.6788 C.3     1  UNL1        0.0564
     27 C         142.9310  141.3587  169.1263 C.3     1  UNL1        0.1097
     28 C         142.6192  139.9768  169.6193 C.3     1  UNL1        0.3982
     29 F         142.3074  138.5949  170.1122 F       1  UNL1       -0.1700
     30 F         142.2474  140.5388  170.9594 F       1  UNL1       -0.1700
     31 F         142.9911  139.4149  168.2792 F       1  UNL1       -0.1700
@<TRIPOS>BOND
     1     1     2    1
     2     2     3    1
     3     2     4    1
     4     4     5    2
     5     4     6   am
     6     6     7    1
     7     7     8   ar
     8     8     9   ar
     9     9    17    1
    10    17    18   ar
    11    18    19   ar
    12    19    26    1
    13    26    27    1
    14    27    28    1
    15    28    29    1
    16    28    30    1
    17    28    31    1
    18    19    20   ar
    19    20    21   ar
    20    21    22   ar
    21    22    23   ar
    22    23    24   ar
    23    24    25   ar
    24     9    10   ar
    25    10    11   ar
    26    11    12    1
    27    11    13   ar
    28    13     2    1
    29    13     7   ar
    30    25    17   ar
    31    25    20   ar
    32     6    14    1
    33    12    15    1
    34    12    16    1
@<TRIPOS>MOLECULE
*****
 31 34 0 0 0
SMALL
GASTEIGER

@<TRIPOS>ATOM
      1 C         141.3583  145.2819  158.1079 C.3     1  UNL1        0.0137
      2 C         141.3533  144.6716  159.4782 C.3     1  UNL1        0.0932
      3 C         140.2823  145.6850  159.7539 C.3     1  UNL1        0.0137
      4 C         142.4253  143.7858  158.9159 C.2     1  UNL1        0.2302
      5 O         142.9683  143.8369  157.5186 O.2     1  UNL1       -0.2744
      6 N         142.8589  142.8400  159.9963 N.am    1  UNL1       -0.2692
      7 C         142.0549  143.1412  161.2263 C.ar    1  UNL1        0.1363
      8 N         142.0499  142.5309  162.5965 N.ar    1  UNL1       -0.1951
      9 C         141.1143  143.0527  163.6465 C.ar    1  UNL1        0.2553
     10 N         140.1838  144.1847  163.3262 N.ar    1  UNL1       -0.1957
     11 C         140.1888  144.7950  161.9560 C.ar    1  UNL1        0.1276
     12 N         139.2582  145.9270  161.6358 N.pl3   1  UNL1       -0.3427
     13 C         141.1243  144.2732  160.9061 C.ar    1  UNL1        0.0484
     14 H         143.5499  142.1437  159.9128 H       1  UNL1        0.1563
     15 H         138.6442  146.2695  162.3249 H       1  UNL1        0.1437
     16 H         139.2615  146.3276  160.7364 H       1  UNL1        0.1437
     17 N         141.1093  142.4424  165.0168 N.ar    1  UNL1       -0.1967
     18 N         142.0555  142.7732  166.1327 N.ar    1  UNL1       -0.1670
     19 C         141.6882  141.9295  167.3173 C.ar    1  UNL1        0.0807
     20 C         140.5150  141.0773  166.9334 C.ar    1  UNL1        0.0330
     21 C         139.7262  140.0535  167.6949 C.ar    1  UNL1        0.0027
     22 C         138.5797  139.3469  167.0346 C.ar    1  UNL1        0.0001
     23 C         138.2219  139.6639  165.6127 C.ar    1  UNL1        0.0015
     24 C         139.0107  140.6876  164.8513 C.ar    1  UNL1        0.0193
     25 C         140.1572  141.3943  165.5117 C.ar    1  UNL1        0.0870
     26 C         142.3738  141.9367  168.6514 C.3     1  UNL1        0.0564
     27 C         141.9540  142.9185  169.7050 C.3     1  UNL1        0.1097
     28 C         140.5422  142.9172  170.2115 C.3     1  UNL1        0.3982
     29 F         139.1303  142.9159  170.7180 F       1  UNL1       -0.1700
     30 F         140.7094  141.5001  170.6740 F       1  UNL1       -0.1700
     31 F         140.3749  144.3342  169.7490 F       1  UNL1       -0.1700
@<TRIPOS>BOND
     1     1     2    1
     2     2     3    1
     3     2     4    1
     4     4     5    2
     5     4     6   am
     6     6     7    1
     7     7     8   ar
     8     8     9   ar
     9     9    17    1
    10    17    18   ar
    11    18    19   ar
    12    19    26    1
    13    26    27    1
    14    27    28    1
    15    28    29    1
    16    28    30    1
    17    28    31    1
    18    19    20   ar
    19    20    21   ar
    20    21    22   ar
    21    22    23   ar
    22    23    24   ar
    23    24    25   ar
    24     9    10   ar
    25    10    11   ar
    26    11    12    1
    27    11    13   ar
    28    13     2    1
    29    13     7   ar
    30    25    17   ar
    31    25    20   ar
    32     6    14    1
    33    12    15    1
    34    12    16    1
@<TRIPOS>MOLECULE
*****
 31 34 0 0 0
SMALL
GASTEIGER

@<TRIPOS>ATOM
      1 C         142.1426  137.1423  155.1156 C.3     1  UNL1        0.0137
      2 C         141.5882  137.7214  156.3835 C.3     1  UNL1        0.0932
      3 C         140.3720  137.9846  155.5460 C.3     1  UNL1        0.0137
      4 C         142.9204  137.3371  156.9559 C.2     1  UNL1        0.2302
      5 O         144.0410  136.6728  156.2124 O.2     1  UNL1       -0.2744
      6 N         142.9350  137.7337  158.4025 N.am    1  UNL1       -0.2692
      7 C         141.6120  138.3631  158.7240 C.ar    1  UNL1        0.1363
      8 N         141.0577  138.9421  159.9919 N.ar    1  UNL1       -0.1951
      9 C         139.6710  139.5136  160.0119 C.ar    1  UNL1        0.2553
     10 N         138.8386  139.5060  158.7640 N.ar    1  UNL1       -0.1957
     11 C         139.3929  138.9270  157.4962 C.ar    1  UNL1        0.1276
     12 N         138.5605  138.9194  156.2484 N.pl3   1  UNL1       -0.3427
     13 C         140.7796  138.3555  157.4762 C.ar    1  UNL1        0.0484
     14 H         143.6819  137.6037  159.0306 H       1  UNL1        0.1563
     15 H         137.6503  139.2945  156.2615 H       1  UNL1        0.1437
     16 H         138.9243  138.5393  155.4163 H       1  UNL1        0.1437
     17 N         139.1166  140.0927  161.2797 N.ar    1  UNL1       -0.1967
     18 N         138.5695  141.4789  161.4505 N.ar    1  UNL1       -0.1670
     19 C         138.1268  141.6302  162.8756 C.ar    1  UNL1        0.0807
     20 C         138.4003  140.3375  163.5857 C.ar    1  UNL1        0.0330
     21 C         138.1714  139.9028  165.0030 C.ar    1  UNL1        0.0027
     22 C         138.5542  138.5181  165.4339 C.ar    1  UNL1        0.0001
     23 C         139.1660  137.5678  164.4475 C.ar    1  UNL1        0.0015
     24 C         139.3949  138.0024  163.0303 C.ar    1  UNL1        0.0193
     25 C         139.0121  139.3873  162.5994 C.ar    1  UNL1        0.0870
     26 C         137.5176  142.8585  163.4840 C.3     1  UNL1        0.0564
     27 C         138.3407  144.1018  163.6471 C.3     1  UNL1        0.1097
     28 C         138.4695  144.7444  164.9963 C.3     1  UNL1        0.3982
     29 F         138.5983  145.3869  166.3456 F       1  UNL1       -0.1700
     30 F         137.0208  144.4656  165.2674 F       1  UNL1       -0.1700
     31 F         139.9182  145.0231  164.7253 F       1  UNL1       -0.1700
@<TRIPOS>BOND
     1     1     2    1
     2     2     3    1
     3     2     4    1
     4     4     5    2
     5     4     6   am
     6     6     7    1
     7     7     8   ar
     8     8     9   ar
     9     9    17    1
    10    17    18   ar
    11    18    19   ar
    12    19    26    1
    13    26    27    1
    14    27    28    1
    15    28    29    1
    16    28    30    1
    17    28    31    1
    18    19    20   ar
    19    20    21   ar
    20    21    22   ar
    21    22    23   ar
    22    23    24   ar
    23    24    25   ar
    24     9    10   ar
    25    10    11   ar
    26    11    12    1
    27    11    13   ar
    28    13     2    1
    29    13     7   ar
    30    25    17   ar
    31    25    20   ar
    32     6    14    1
    33    12    15    1
    34    12    16    1
@<TRIPOS>MOLECULE
*****
 31 34 0 0 0
SMALL
GASTEIGER

@<TRIPOS>ATOM
      1 C         141.0157  146.1447  154.1683 C.3     1  UNL1        0.0137
      2 C         141.1251  145.8459  155.6342 C.3     1  UNL1        0.0932
      3 C         142.2432  144.9422  155.2061 C.3     1  UNL1        0.0137
      4 C         139.9841  146.8120  155.7558 C.2     1  UNL1        0.2302
      5 O         139.3215  147.5408  154.6245 O.2     1  UNL1       -0.2744
      6 N         139.6221  146.9212  157.2073 N.am    1  UNL1       -0.2692
      7 C         140.5393  146.0227  157.9828 C.ar    1  UNL1        0.1363
      8 N         140.6487  145.7239  159.4486 N.ar    1  UNL1       -0.1951
      9 C         141.6870  144.7604  159.9421 C.ar    1  UNL1        0.2553
     10 N         142.6159  144.0957  158.9699 N.ar    1  UNL1       -0.1957
     11 C         142.5065  144.3946  157.5040 C.ar    1  UNL1        0.1276
     12 N         143.4354  143.7299  156.5317 N.pl3   1  UNL1       -0.3427
     13 C         141.4682  145.3581  157.0105 C.ar    1  UNL1        0.0484
     14 H         138.9079  147.4839  157.5848 H       1  UNL1        0.1563
     15 H         144.1169  143.0975  156.8557 H       1  UNL1        0.1437
     16 H         143.3637  143.9261  155.5696 H       1  UNL1        0.1437
     17 N         141.7964  144.4615  161.4080 N.ar    1  UNL1       -0.1967
     18 N         143.0666  144.2029  162.1627 N.ar    1  UNL1       -0.1670
     19 C         142.7101  143.9503  163.5977 C.ar    1  UNL1        0.0807
     20 C         141.2194  144.0528  163.7298 C.ar    1  UNL1        0.0330
     21 C         140.3033  143.8992  164.9076 C.ar    1  UNL1        0.0027
     22 C         138.8226  144.0616  164.7321 C.ar    1  UNL1        0.0001
     23 C         138.2578  144.3776  163.3788 C.ar    1  UNL1        0.0015
     24 C         139.1739  144.5311  162.2011 C.ar    1  UNL1        0.0193
     25 C         140.6547  144.3687  162.3766 C.ar    1  UNL1        0.0870
     26 C         143.6748  143.6482  164.7058 C.3     1  UNL1        0.0564
     27 C         145.0054  143.0299  164.3941 C.3     1  UNL1        0.1097
     28 C         145.1196  141.5444  164.2197 C.3     1  UNL1        0.3982
     29 F         145.2339  140.0590  164.0452 F       1  UNL1       -0.1700
     30 F         146.2500  141.7448  163.2543 F       1  UNL1       -0.1700
     31 F         143.9892  141.3441  165.1851 F       1  UNL1       -0.1700
@<TRIPOS>BOND
     1     1     2    1
     2     2     3    1
     3     2     4    1
     4     4     5    2
     5     4     6   am
     6     6     7    1
     7     7     8   ar
     8     8     9   ar
     9     9    17    1
    10    17    18   ar
    11    18    19   ar
    12    19    26    1
    13    26    27    1
    14    27    28    1
    15    28    29    1
    16    28    30    1
    17    28    31    1
    18    19    20   ar
    19    20    21   ar
    20    21    22   ar
    21    22    23   ar
    22    23    24   ar
    23    24    25   ar
    24     9    10   ar
    25    10    11   ar
    26    11    12    1
    27    11    13   ar
    28    13     2    1
    29    13     7   ar
    30    25    17   ar
    31    25    20   ar
    32     6    14    1
    33    12    15    1
    34    12    16    1
@<TRIPOS>MOLECULE
*****
 31 34 0 0 0
SMALL
GASTEIGER

@<TRIPOS>ATOM
      1 C         143.8450  142.0667  158.0448 C.3     1  UNL1        0.0137
      2 C         143.5006  141.8871  159.4937 C.3     1  UNL1        0.0932
      3 C         143.1807  143.3514  159.4369 C.3     1  UNL1        0.0137
      4 C         143.8925  140.4602  159.2475 C.2     1  UNL1        0.2302
      5 O         144.3697  139.8891  157.9452 O.2     1  UNL1       -0.2744
      6 N         143.7234  139.7049  160.5324 N.am    1  UNL1       -0.2692
      7 C         143.2270  140.6649  161.5726 C.ar    1  UNL1        0.1363
      8 N         142.8826  140.4852  163.0214 N.ar    1  UNL1       -0.1951
      9 C         142.4005  141.6542  163.8282 C.ar    1  UNL1        0.2553
     10 N         142.2628  143.0028  163.1863 N.ar    1  UNL1       -0.1957
     11 C         142.6072  143.1825  161.7375 C.ar    1  UNL1        0.1276
     12 N         142.4695  144.5312  161.0955 N.pl3   1  UNL1       -0.3427
     13 C         143.0893  142.0135  160.9306 C.ar    1  UNL1        0.0484
     14 H         143.9062  138.7472  160.6690 H       1  UNL1        0.1563
     15 H         142.1531  145.2984  161.6251 H       1  UNL1        0.1437
     16 H         142.6955  144.6491  160.1446 H       1  UNL1        0.1437
     17 N         142.0561  141.4745  165.2771 N.ar    1  UNL1       -0.1967
     18 N         142.8457  141.9938  166.4420 N.ar    1  UNL1       -0.1670
     19 C         142.1393  141.5843  167.7003 C.ar    1  UNL1        0.0807
     20 C         140.9131  140.8119  167.3130 C.ar    1  UNL1        0.0330
     21 C         139.8367  140.1616  168.1306 C.ar    1  UNL1        0.0027
     22 C         138.7090  139.4435  167.4506 C.ar    1  UNL1        0.0001
     23 C         138.6575  139.3756  165.9530 C.ar    1  UNL1        0.0015
     24 C         139.7339  140.0259  165.1354 C.ar    1  UNL1        0.0193
     25 C         140.8617  140.7441  165.8154 C.ar    1  UNL1        0.0870
     26 C         142.5814  141.8929  169.1000 C.3     1  UNL1        0.0564
     27 C         141.9824  143.0540  169.8369 C.3     1  UNL1        0.1097
     28 C         140.5590  142.9907  170.3060 C.3     1  UNL1        0.3982
     29 F         139.1357  142.9275  170.7752 F       1  UNL1       -0.1700
     30 F         140.9081  141.8465  171.2109 F       1  UNL1       -0.1700
     31 F         140.2099  144.1350  169.4012 F       1  UNL1       -0.1700
@<TRIPOS>BOND
     1     1     2    1
     2     2     3    1
     3     2     4    1
     4     4     5    2
     5     4     6   am
     6     6     7    1
     7     7     8   ar
     8     8     9   ar
     9     9    17    1
    10    17    18   ar
    11    18    19   ar
    12    19    26    1
    13    26    27    1
    14    27    28    1
    15    28    29    1
    16    28    30    1
    17    28    31    1
    18    19    20   ar
    19    20    21   ar
    20    21    22   ar
    21    22    23   ar
    22    23    24   ar
    23    24    25   ar
    24     9    10   ar
    25    10    11   ar
    26    11    12    1
    27    11    13   ar
    28    13     2    1
    29    13     7   ar
    30    25    17   ar
    31    25    20   ar
    32     6    14    1
    33    12    15    1
    34    12    16    1
@<TRIPOS>MOLECULE
*****
 31 34 0 0 0
SMALL
GASTEIGER

@<TRIPOS>ATOM
      1 C         141.2248  146.2648  154.0285 C.3     1  UNL1        0.0137
      2 C         141.1218  146.0159  155.5041 C.3     1  UNL1        0.0932
      3 C         142.2891  145.1029  155.2723 C.3     1  UNL1        0.0137
      4 C         139.9759  146.9809  155.4275 C.2     1  UNL1        0.2302
      5 O         139.4837  147.6685  154.1886 O.2     1  UNL1       -0.2744
      6 N         139.4088  147.1375  156.8072 N.am    1  UNL1       -0.2692
      7 C         140.2041  146.2693  157.7367 C.ar    1  UNL1        0.1363
      8 N         140.1010  146.0204  159.2122 N.ar    1  UNL1       -0.1951
      9 C         141.0566  145.0783  159.8824 C.ar    1  UNL1        0.2553
     10 N         142.1153  144.3851  159.0770 N.ar    1  UNL1       -0.1957
     11 C         142.2184  144.6340  157.6015 C.ar    1  UNL1        0.1276
     12 N         143.2770  143.9408  156.7961 N.pl3   1  UNL1       -0.3427
     13 C         141.2628  145.5761  156.9313 C.ar    1  UNL1        0.0484
     14 H         138.6481  147.7097  157.0587 H       1  UNL1        0.1563
     15 H         143.9043  143.3224  157.2360 H       1  UNL1        0.1437
     16 H         143.3447  144.1041  155.8276 H       1  UNL1        0.1437
     17 N         140.9536  144.8293  161.3581 N.ar    1  UNL1       -0.1967
     18 N         139.7535  145.1003  162.2162 N.ar    1  UNL1       -0.1670
     19 C         140.0907  144.7042  163.6231 C.ar    1  UNL1        0.0807
     20 C         141.4992  144.1884  163.6345 C.ar    1  UNL1        0.0330
     21 C         142.3651  143.6583  164.7387 C.ar    1  UNL1        0.0027
     22 C         143.7642  143.2056  164.4430 C.ar    1  UNL1        0.0001
     23 C         144.2975  143.2830  163.0431 C.ar    1  UNL1        0.0015
     24 C         143.4316  143.8130  161.9389 C.ar    1  UNL1        0.0193
     25 C         142.0325  144.2658  162.2346 C.ar    1  UNL1        0.0870
     26 C         139.1794  144.8060  164.8102 C.3     1  UNL1        0.0564
     27 C         137.9320  143.9752  164.8716 C.3     1  UNL1        0.1097
     28 C         137.8952  142.6278  164.2133 C.3     1  UNL1        0.3982
     29 F         137.8584  141.2805  163.5551 F       1  UNL1       -0.1700
     30 F         138.6054  142.0323  165.3927 F       1  UNL1       -0.1700
     31 F         137.1851  143.2234  163.0339 F       1  UNL1       -0.1700
@<TRIPOS>BOND
     1     1     2    1
     2     2     3    1
     3     2     4    1
     4     4     5    2
     5     4     6   am
     6     6     7    1
     7     7     8   ar
     8     8     9   ar
     9     9    17    1
    10    17    18   ar
    11    18    19   ar
    12    19    26    1
    13    26    27    1
    14    27    28    1
    15    28    29    1
    16    28    30    1
    17    28    31    1
    18    19    20   ar
    19    20    21   ar
    20    21    22   ar
    21    22    23   ar
    22    23    24   ar
    23    24    25   ar
    24     9    10   ar
    25    10    11   ar
    26    11    12    1
    27    11    13   ar
    28    13     2    1
    29    13     7   ar
    30    25    17   ar
    31    25    20   ar
    32     6    14    1
    33    12    15    1
    34    12    16    1
@<TRIPOS>MOLECULE
*****
 31 34 0 0 0
SMALL
GASTEIGER

@<TRIPOS>ATOM
      1 C         138.1888  144.0970  153.9703 C.3     1  UNL1        0.0137
      2 C         138.6890  144.1325  155.3841 C.3     1  UNL1        0.0932
      3 C         139.1866  145.4966  155.0074 C.3     1  UNL1        0.0137
      4 C         138.0869  142.7611  155.4652 C.2     1  UNL1        0.2302
      5 O         137.3773  142.0427  154.3559 O.2     1  UNL1       -0.2744
      6 N         138.3190  142.2342  156.8502 N.am    1  UNL1       -0.2692
      7 C         139.0646  143.2799  157.6252 C.ar    1  UNL1        0.1363
      8 N         139.5648  143.3154  159.0388 N.ar    1  UNL1       -0.1951
      9 C         140.2937  144.5241  159.5464 C.ar    1  UNL1        0.2553
     10 N         140.5224  145.6974  158.6402 N.ar    1  UNL1       -0.1957
     11 C         140.0222  145.6619  157.2265 C.ar    1  UNL1        0.1276
     12 N         140.2509  146.8352  156.3204 N.pl3   1  UNL1       -0.3427
     13 C         139.2933  144.4532  156.7190 C.ar    1  UNL1        0.0484
     14 H         138.0323  141.3561  157.1909 H       1  UNL1        0.1563
     15 H         140.7293  147.6286  156.6535 H       1  UNL1        0.1437
     16 H         139.9226  146.8119  155.3925 H       1  UNL1        0.1437
     17 N         140.7940  144.5596  160.9601 N.ar    1  UNL1       -0.1967
     18 N         142.2211  144.7381  161.3861 N.ar    1  UNL1       -0.1670
     19 C         142.2641  144.7117  162.8852 C.ar    1  UNL1        0.0807
     20 C         140.8635  144.5169  163.3857 C.ar    1  UNL1        0.0330
     21 C         140.2981  144.4130  164.7712 C.ar    1  UNL1        0.0027
     22 C         138.8242  144.2151  164.9668 C.ar    1  UNL1        0.0001
     23 C         137.9155  144.1211  163.7770 C.ar    1  UNL1        0.0015
     24 C         138.4810  144.2251  162.3916 C.ar    1  UNL1        0.0193
     25 C         139.9549  144.4230  162.1959 C.ar    1  UNL1        0.0870
     26 C         143.4920  144.8549  163.7347 C.3     1  UNL1        0.0564
     27 C         144.1983  143.6335  164.2440 C.3     1  UNL1        0.1097
     28 C         144.0170  143.2017  165.6690 C.3     1  UNL1        0.3982
     29 F         143.8356  142.7700  167.0940 F       1  UNL1       -0.1700
     30 F         142.8410  142.3627  165.2651 F       1  UNL1       -0.1700
     31 F         145.1930  144.0407  166.0728 F       1  UNL1       -0.1700
@<TRIPOS>BOND
     1     1     2    1
     2     2     3    1
     3     2     4    1
     4     4     5    2
     5     4     6   am
     6     6     7    1
     7     7     8   ar
     8     8     9   ar
     9     9    17    1
    10    17    18   ar
    11    18    19   ar
    12    19    26    1
    13    26    27    1
    14    27    28    1
    15    28    29    1
    16    28    30    1
    17    28    31    1
    18    19    20   ar
    19    20    21   ar
    20    21    22   ar
    21    22    23   ar
    22    23    24   ar
    23    24    25   ar
    24     9    10   ar
    25    10    11   ar
    26    11    12    1
    27    11    13   ar
    28    13     2    1
    29    13     7   ar
    30    25    17   ar
    31    25    20   ar
    32     6    14    1
    33    12    15    1
    34    12    16    1
@<TRIPOS>MOLECULE
*****
 31 34 0 0 0
SMALL
GASTEIGER

@<TRIPOS>ATOM
      1 C         141.9824  142.2763  171.2668 C.3     1  UNL1        0.0137
      2 C         141.6584  141.7581  169.8969 C.3     1  UNL1        0.0932
      3 C         140.4789  141.1353  170.5831 C.3     1  UNL1        0.0137
      4 C         142.9056  142.4893  169.4971 C.2     1  UNL1        0.2302
      5 O         143.7962  143.2783  170.4105 O.2     1  UNL1       -0.2744
      6 N         143.1059  142.2928  168.0236 N.am    1  UNL1       -0.2692
      7 C         141.9824  141.4402  167.5127 C.ar    1  UNL1        0.1363
      8 N         141.6584  140.9221  166.1429 N.ar    1  UNL1       -0.1951
      9 C         140.4399  140.0735  165.9308 C.ar    1  UNL1        0.2553
     10 N         139.5453  139.7431  167.0886 N.ar    1  UNL1       -0.1957
     11 C         139.8692  140.2612  168.4584 C.ar    1  UNL1        0.1276
     12 N         138.9746  139.9308  169.6162 N.pl3   1  UNL1       -0.3427
     13 C         141.0878  141.1098  168.6705 C.ar    1  UNL1        0.0484
     14 H         143.8449  142.6590  167.4861 H       1  UNL1        0.1563
     15 H         138.1748  139.3739  169.4770 H       1  UNL1        0.1437
     16 H         139.1872  140.2709  170.5153 H       1  UNL1        0.1437
     17 N         140.1159  139.5553  164.5609 N.ar    1  UNL1       -0.1967
     18 N         138.7507  139.4909  163.9427 N.ar    1  UNL1       -0.1670
     19 C         138.8912  138.9064  162.5685 C.ar    1  UNL1        0.0807
     20 C         140.3433  138.6096  162.3373 C.ar    1  UNL1        0.0330
     21 C         141.0741  138.0259  161.1646 C.ar    1  UNL1        0.0027
     22 C         142.5617  137.8434  161.2233 C.ar    1  UNL1        0.0001
     23 C         143.3187  138.2444  162.4547 C.ar    1  UNL1        0.0015
     24 C         142.5878  138.8281  163.6273 C.ar    1  UNL1        0.0193
     25 C         141.1001  139.0107  163.5687 C.ar    1  UNL1        0.0870
     26 C         137.7755  138.6617  161.5961 C.3     1  UNL1        0.0564
     27 C         137.3555  139.7457  160.6483 C.3     1  UNL1        0.1097
     28 C         138.2421  140.9357  160.4295 C.3     1  UNL1        0.3982
     29 F         139.1287  142.1257  160.2108 F       1  UNL1       -0.1700
     30 F         138.9571  140.2016  159.3342 F       1  UNL1       -0.1700
     31 F         137.5270  141.6698  161.5249 F       1  UNL1       -0.1700
@<TRIPOS>BOND
     1     1     2    1
     2     2     3    1
     3     2     4    1
     4     4     5    2
     5     4     6   am
     6     6     7    1
     7     7     8   ar
     8     8     9   ar
     9     9    17    1
    10    17    18   ar
    11    18    19   ar
    12    19    26    1
    13    26    27    1
    14    27    28    1
    15    28    29    1
    16    28    30    1
    17    28    31    1
    18    19    20   ar
    19    20    21   ar
    20    21    22   ar
    21    22    23   ar
    22    23    24   ar
    23    24    25   ar
    24     9    10   ar
    25    10    11   ar
    26    11    12    1
    27    11    13   ar
    28    13     2    1
    29    13     7   ar
    30    25    17   ar
    31    25    20   ar
    32     6    14    1
    33    12    15    1
    34    12    16    1
