@<TRIPOS>MOLECULE
*****
 46 50 0 0 0
SMALL
GASTEIGER

@<TRIPOS>ATOM
      1 C         142.4759  142.7906  159.8534 C.ar    1  UNL1        0.0375
      2 C         142.1231  142.4461  158.4368 C.ar    1  UNL1        0.1031
      3 N         143.2045  142.0921  157.4594 N.ar    1  UNL1       -0.2121
      4 C         144.6388  142.0826  157.8987 C.ar    1  UNL1        0.2200
      5 N         144.9916  142.4271  159.3154 N.ar    1  UNL1       -0.2163
      6 C         143.9101  142.7811  160.2927 C.ar    1  UNL1        0.0836
      7 C         140.7856  144.5152  160.8117 C.ar    1  UNL1        0.1387
      8 C         139.7042  144.8691  161.7891 C.ar    1  UNL1        0.0369
      9 C         139.2315  143.8523  162.7854 C.ar    1  UNL1        0.0031
     10 C         139.8403  142.4816  162.8044 C.ar    1  UNL1       -0.0001
     11 C         140.9218  142.1277  161.8271 C.ar    1  UNL1        0.0031
     12 C         141.3944  143.1445  160.8308 C.ar    1  UNL1        0.0367
     13 C         139.3677  141.4647  163.8007 C.ar    1  UNL1       -0.0039
     14 C         139.6192  141.6756  165.2644 C.ar    1  UNL1       -0.0003
     15 C         139.1466  140.6588  166.2607 C.ar    1  UNL1        0.0011
     16 C         138.4224  139.4311  165.7934 C.ar    1  UNL1        0.0137
     17 C         138.1709  139.2203  164.3298 C.ar    1  UNL1       -0.0031
     18 C         138.6436  140.2371  163.3335 C.ar    1  UNL1       -0.0218
     19 C         138.3920  140.0262  161.8698 C.3     1  UNL1        0.0310
     20 C         137.9498  138.4143  166.7897 C.2     1  UNL1        0.0729
     21 O         137.7221  136.9947  166.3621 O.co2   1  UNL1       -0.5446
     22 O         137.7049  138.8170  168.2137 O.co2   1  UNL1       -0.5446
     23 C         140.4940  145.7466  158.5427 C.3     1  UNL1        0.2525
     24 O         141.2582  145.5321  159.8154 O.3     1  UNL1       -0.4714
     25 N         145.7202  141.7287  156.9214 N.pl3   1  UNL1       -0.2747
     26 C         145.5374  140.5687  155.9882 C.3     1  UNL1        0.1151
     27 C         146.9844  142.5348  156.8773 C.3     1  UNL1        0.1151
     28 C         144.2628  143.1256  161.7094 C.3     1  UNL1        0.1428
     29 N         143.9860  142.1455  162.8107 N.am    1  UNL1       -0.2380
     30 C         144.1207  140.6544  162.7184 C.2     1  UNL1        0.4055
     31 O         144.5558  139.8816  161.5087 O.2     1  UNL1       -0.2262
     32 O         143.7439  140.0718  164.0484 O.3     1  UNL1       -0.4320
     33 C         143.3764  141.2029  164.9626 C.3     1  UNL1        0.2108
     34 C         143.5260  142.4845  164.1976 C.3     1  UNL1        0.1233
     35 C         143.2621  143.8630  164.7266 C.3     1  UNL1        0.0258
     36 C         142.9365  141.0749  166.3908 C.ar    1  UNL1        0.0212
     37 C         143.0714  139.7613  167.1023 C.ar    1  UNL1        0.0289
     38 C         142.6315  139.6332  168.5306 C.ar    1  UNL1        0.1399
     39 F         142.7664  138.3196  169.2420 F       1  UNL1       -0.2042
     40 C         142.0566  140.8188  169.2474 C.ar    1  UNL1        0.0335
     41 C         141.9217  142.1325  168.5360 C.ar    1  UNL1        0.0735
     42 C         142.3616  142.2605  167.1077 C.ar    1  UNL1        0.0032
     43 C         141.3468  143.3181  169.2529 C.3     1  UNL1        0.4186
     44 F         140.7719  144.5037  169.9698 F       1  UNL1       -0.1659
     45 F         142.5743  143.3939  170.1117 F       1  UNL1       -0.1659
     46 F         140.1194  143.2422  168.3940 F       1  UNL1       -0.1659
@<TRIPOS>UNITY_ATOM_ATTR
21 1
charge -1
@<TRIPOS>BOND
     1    23    24    1
     2    24     7    1
     3     7     8   ar
     4     8     9   ar
     5     9    10   ar
     6    10    13    1
     7    13    14   ar
     8    14    15   ar
     9    15    16   ar
    10    16    20    1
    11    20    21   ar
    12    20    22   ar
    13    16    17   ar
    14    17    18   ar
    15    18    19    1
    16    10    11   ar
    17    11    12   ar
    18    12     1    1
    19     1     2   ar
    20     2     3   ar
    21     3     4   ar
    22     4    25    1
    23    25    26    1
    24    25    27    1
    25     4     5   ar
    26     5     6   ar
    27     6    28    1
    28    28    29    1
    29    29    30   am
    30    30    31    2
    31    30    32    1
    32    32    33    1
    33    33    36    1
    34    36    37   ar
    35    37    38   ar
    36    38    39    1
    37    38    40   ar
    38    40    41   ar
    39    41    43    1
    40    43    44    1
    41    43    45    1
    42    43    46    1
    43    41    42   ar
    44    33    34    1
    45    34    35    1
    46    12     7   ar
    47     6     1   ar
    48    34    29    1
    49    18    13   ar
    50    42    36   ar
@<TRIPOS>MOLECULE
*****
 46 50 0 0 0
SMALL
GASTEIGER

@<TRIPOS>ATOM
      1 C         139.5135  141.2371  158.2180 C.ar    1  UNL1        0.0375
      2 C         138.2260  140.9182  157.5176 C.ar    1  UNL1        0.1031
      3 N         137.6352  141.9005  156.5501 N.ar    1  UNL1       -0.2121
      4 C         138.3321  143.2017  156.2829 C.ar    1  UNL1        0.2200
      5 N         139.6196  143.5206  156.9832 N.ar    1  UNL1       -0.2163
      6 C         140.2103  142.5382  157.9508 C.ar    1  UNL1        0.0836
      7 C         141.2588  139.3929  158.7684 C.ar    1  UNL1        0.1387
      8 C         141.8494  138.4106  159.7359 C.ar    1  UNL1        0.0369
      9 C         141.2855  138.2902  161.1207 C.ar    1  UNL1        0.0031
     10 C         140.1310  139.1521  161.5379 C.ar    1  UNL1       -0.0001
     11 C         139.5403  140.1344  160.5703 C.ar    1  UNL1        0.0031
     12 C         140.1042  140.2548  159.1856 C.ar    1  UNL1        0.0367
     13 C         139.5671  139.0317  162.9226 C.ar    1  UNL1       -0.0039
     14 C         139.6341  137.7207  163.6483 C.ar    1  UNL1       -0.0003
     15 C         139.0701  137.6003  165.0331 C.ar    1  UNL1        0.0011
     16 C         138.4393  138.7910  165.6921 C.ar    1  UNL1        0.0137
     17 C         138.3723  140.1020  164.9664 C.ar    1  UNL1       -0.0031
     18 C         138.9362  140.2223  163.5816 C.ar    1  UNL1       -0.0218
     19 C         138.8692  141.5334  162.8559 C.3     1  UNL1        0.0310
     20 C         137.8753  138.6706  167.0768 C.2     1  UNL1        0.0729
     21 O         138.5000  139.4299  168.2097 O.co2   1  UNL1       -0.5446
     22 O         136.6868  137.7909  167.3288 O.co2   1  UNL1       -0.5446
     23 C         143.2835  139.7937  157.1905 C.3     1  UNL1        0.2525
     24 O         141.8227  139.5133  157.3836 O.3     1  UNL1       -0.4714
     25 N         137.7414  144.1840  155.3153 N.pl3   1  UNL1       -0.2747
     26 C         138.2062  145.6101  155.3166 C.3     1  UNL1        0.1151
     27 C         136.6858  143.7401  154.3465 C.3     1  UNL1        0.1151
     28 C         141.4979  142.8571  158.6512 C.3     1  UNL1        0.1428
     29 N         141.4849  143.2705  160.0931 N.am    1  UNL1       -0.2380
     30 C         140.6731  144.3852  160.6834 C.2     1  UNL1        0.4055
     31 O         139.7318  145.2822  159.9356 O.2     1  UNL1       -0.2262
     32 O         140.9679  144.4454  162.1530 O.3     1  UNL1       -0.4320
     33 C         141.9619  143.3678  162.4708 C.3     1  UNL1        0.2108
     34 C         142.2814  142.6417  161.1978 C.3     1  UNL1        0.1233
     35 C         143.2307  141.4893  161.0544 C.3     1  UNL1        0.0258
     36 C         142.5357  143.0689  163.8241 C.ar    1  UNL1        0.0212
     37 C         143.6898  143.8737  164.3439 C.ar    1  UNL1        0.0289
     38 C         144.2635  143.5748  165.6972 C.ar    1  UNL1        0.1399
     39 F         145.4177  144.3796  166.2170 F       1  UNL1       -0.2042
     40 C         143.6831  142.4710  166.5307 C.ar    1  UNL1        0.0335
     41 C         142.5289  141.6661  166.0110 C.ar    1  UNL1        0.0735
     42 C         141.9553  141.9651  164.6576 C.ar    1  UNL1        0.0032
     43 C         141.9485  140.5623  166.8445 C.3     1  UNL1        0.4186
     44 F         141.3682  139.4586  167.6781 F       1  UNL1       -0.1659
     45 F         141.7146  139.7497  165.6056 F       1  UNL1       -0.1659
     46 F         142.1825  141.3749  168.0834 F       1  UNL1       -0.1659
@<TRIPOS>UNITY_ATOM_ATTR
21 1
charge -1
@<TRIPOS>BOND
     1    23    24    1
     2    24     7    1
     3     7     8   ar
     4     8     9   ar
     5     9    10   ar
     6    10    13    1
     7    13    14   ar
     8    14    15   ar
     9    15    16   ar
    10    16    20    1
    11    20    21   ar
    12    20    22   ar
    13    16    17   ar
    14    17    18   ar
    15    18    19    1
    16    10    11   ar
    17    11    12   ar
    18    12     1    1
    19     1     2   ar
    20     2     3   ar
    21     3     4   ar
    22     4    25    1
    23    25    26    1
    24    25    27    1
    25     4     5   ar
    26     5     6   ar
    27     6    28    1
    28    28    29    1
    29    29    30   am
    30    30    31    2
    31    30    32    1
    32    32    33    1
    33    33    36    1
    34    36    37   ar
    35    37    38   ar
    36    38    39    1
    37    38    40   ar
    38    40    41   ar
    39    41    43    1
    40    43    44    1
    41    43    45    1
    42    43    46    1
    43    41    42   ar
    44    33    34    1
    45    34    35    1
    46    12     7   ar
    47     6     1   ar
    48    34    29    1
    49    18    13   ar
    50    42    36   ar
@<TRIPOS>MOLECULE
*****
 46 50 0 0 0
SMALL
GASTEIGER

@<TRIPOS>ATOM
      1 C         140.0796  141.8875  158.5464 C.ar    1  UNL1        0.0375
      2 C         139.0567  141.7630  157.4564 C.ar    1  UNL1        0.1031
      3 N         138.6961  142.9590  156.6261 N.ar    1  UNL1       -0.2121
      4 C         139.3583  144.2797  156.8859 C.ar    1  UNL1        0.2200
      5 N         140.3811  144.4042  157.9759 N.ar    1  UNL1       -0.2163
      6 C         140.7418  143.2081  158.8062 C.ar    1  UNL1        0.0836
      7 C         141.3690  139.6495  158.8274 C.ar    1  UNL1        0.1387
      8 C         141.7296  138.4535  159.6577 C.ar    1  UNL1        0.0369
      9 C         141.1613  138.2993  161.0373 C.ar    1  UNL1        0.0031
     10 C         140.2325  139.3411  161.5866 C.ar    1  UNL1       -0.0001
     11 C         139.8719  140.5372  160.7563 C.ar    1  UNL1        0.0031
     12 C         140.4402  140.6914  159.3767 C.ar    1  UNL1        0.0367
     13 C         139.6642  139.1869  162.9662 C.ar    1  UNL1       -0.0039
     14 C         138.6246  140.1483  163.4609 C.ar    1  UNL1       -0.0003
     15 C         138.0564  139.9941  164.8405 C.ar    1  UNL1        0.0011
     16 C         138.5277  138.8785  165.7254 C.ar    1  UNL1        0.0137
     17 C         139.5673  137.9170  165.2307 C.ar    1  UNL1       -0.0031
     18 C         140.1356  138.0712  163.8511 C.ar    1  UNL1       -0.0218
     19 C         141.1753  137.1097  163.3564 C.3     1  UNL1        0.0310
     20 C         137.9595  138.7243  167.1050 C.2     1  UNL1        0.0729
     21 O         138.5980  139.4328  168.2627 O.co2   1  UNL1       -0.5446
     22 O         136.7527  137.8615  167.3269 O.co2   1  UNL1       -0.5446
     23 C         143.2865  140.4311  157.2582 C.3     1  UNL1        0.2525
     24 O         141.9373  139.8038  157.4478 O.3     1  UNL1       -0.4714
     25 N         138.9976  145.4757  156.0556 N.pl3   1  UNL1       -0.2747
     26 C         139.7088  146.7790  156.2692 C.3     1  UNL1        0.1151
     27 C         137.9258  145.3684  155.0118 C.3     1  UNL1        0.1151
     28 C         141.7646  143.3326  159.8963 C.3     1  UNL1        0.1428
     29 N         141.3371  143.2966  161.3337 N.am    1  UNL1       -0.2380
     30 C         140.2386  144.1131  161.9474 C.2     1  UNL1        0.4055
     31 O         139.3749  145.1090  161.2317 O.2     1  UNL1       -0.2262
     32 O         140.1555  143.7589  163.4027 O.3     1  UNL1       -0.4320
     33 C         141.2026  142.7235  163.6882 C.3     1  UNL1        0.2108
     34 C         141.9328  142.4378  162.4095 C.3     1  UNL1        0.1233
     35 C         143.0608  141.4642  162.2369 C.3     1  UNL1        0.0258
     36 C         141.4722  142.0858  165.0188 C.ar    1  UNL1        0.0212
     37 C         141.0203  142.7612  166.2796 C.ar    1  UNL1        0.0289
     38 C         141.2898  142.1235  167.6102 C.ar    1  UNL1        0.1399
     39 F         140.8379  142.7990  168.8710 F       1  UNL1       -0.2042
     40 C         142.0113  140.8103  167.6802 C.ar    1  UNL1        0.0335
     41 C         142.4632  140.1347  166.4194 C.ar    1  UNL1        0.0735
     42 C         142.1936  140.7726  165.0888 C.ar    1  UNL1        0.0032
     43 C         143.1847  138.8215  166.4893 C.3     1  UNL1        0.4186
     44 F         143.9062  137.5083  166.5593 F       1  UNL1       -0.1659
     45 F         142.9953  138.7967  167.9771 F       1  UNL1       -0.1659
     46 F         143.3741  138.8463  165.0015 F       1  UNL1       -0.1659
@<TRIPOS>UNITY_ATOM_ATTR
21 1
charge -1
@<TRIPOS>BOND
     1    23    24    1
     2    24     7    1
     3     7     8   ar
     4     8     9   ar
     5     9    10   ar
     6    10    13    1
     7    13    14   ar
     8    14    15   ar
     9    15    16   ar
    10    16    20    1
    11    20    21   ar
    12    20    22   ar
    13    16    17   ar
    14    17    18   ar
    15    18    19    1
    16    10    11   ar
    17    11    12   ar
    18    12     1    1
    19     1     2   ar
    20     2     3   ar
    21     3     4   ar
    22     4    25    1
    23    25    26    1
    24    25    27    1
    25     4     5   ar
    26     5     6   ar
    27     6    28    1
    28    28    29    1
    29    29    30   am
    30    30    31    2
    31    30    32    1
    32    32    33    1
    33    33    36    1
    34    36    37   ar
    35    37    38   ar
    36    38    39    1
    37    38    40   ar
    38    40    41   ar
    39    41    43    1
    40    43    44    1
    41    43    45    1
    42    43    46    1
    43    41    42   ar
    44    33    34    1
    45    34    35    1
    46    12     7   ar
    47     6     1   ar
    48    34    29    1
    49    18    13   ar
    50    42    36   ar
@<TRIPOS>MOLECULE
*****
 46 50 0 0 0
SMALL
GASTEIGER

@<TRIPOS>ATOM
      1 C         141.1937  139.1624  158.6492 C.ar    1  UNL1        0.0375
      2 C         140.2348  138.2966  157.8870 C.ar    1  UNL1        0.1031
      3 N         140.7536  137.2743  156.9197 N.ar    1  UNL1       -0.2121
      4 C         142.2313  137.1177  156.7147 C.ar    1  UNL1        0.2200
      5 N         143.1901  137.9835  157.4769 N.ar    1  UNL1       -0.2163
      6 C         142.6713  139.0059  158.4442 C.ar    1  UNL1        0.0836
      7 C         140.5255  141.6146  159.1882 C.ar    1  UNL1        0.1387
      8 C         140.0066  142.6369  160.1554 C.ar    1  UNL1        0.0369
      9 C         139.6372  142.2295  161.5510 C.ar    1  UNL1        0.0031
     10 C         139.7865  140.7998  161.9793 C.ar    1  UNL1       -0.0001
     11 C         140.3054  139.7774  161.0120 C.ar    1  UNL1        0.0031
     12 C         140.6748  140.1849  159.6165 C.ar    1  UNL1        0.0367
     13 C         139.4171  140.3923  163.3748 C.ar    1  UNL1       -0.0039
     14 C         138.7472  139.0725  163.6183 C.ar    1  UNL1       -0.0003
     15 C         138.3778  138.6651  165.0138 C.ar    1  UNL1        0.0011
     16 C         138.6781  139.5775  166.1658 C.ar    1  UNL1        0.0137
     17 C         139.3480  140.8973  165.9224 C.ar    1  UNL1       -0.0031
     18 C         139.7175  141.3047  164.5268 C.ar    1  UNL1       -0.0218
     19 C         140.3873  142.6246  164.2834 C.3     1  UNL1        0.0310
     20 C         138.3087  139.1701  167.5614 C.2     1  UNL1        0.0729
     21 O         137.2716  138.1093  167.7833 O.co2   1  UNL1       -0.5446
     22 O         138.9763  139.8234  168.7350 O.co2   1  UNL1       -0.5446
     23 C         142.1165  142.8592  157.5543 C.3     1  UNL1        0.2525
     24 O         140.8949  142.0220  157.7927 O.3     1  UNL1       -0.4714
     25 N         142.7501  136.0953  155.7475 N.pl3   1  UNL1       -0.2747
     26 C         144.1893  136.1240  155.3259 C.3     1  UNL1        0.1151
     27 C         141.8296  135.0442  155.2018 C.3     1  UNL1        0.1151
     28 C         143.6301  139.8717  159.2064 C.3     1  UNL1        0.1428
     29 N         143.7230  139.7542  160.6990 N.am    1  UNL1       -0.2380
     30 C         143.9281  138.4854  161.4723 C.2     1  UNL1        0.4055
     31 O         144.0763  137.1114  160.8891 O.2     1  UNL1       -0.2262
     32 O         143.9590  138.8318  162.9315 O.3     1  UNL1       -0.4320
     33 C         143.7730  140.3148  163.0599 C.3     1  UNL1        0.2108
     34 C         143.6272  140.8848  161.6801 C.3     1  UNL1        0.1233
     35 C         143.4216  142.3313  161.3409 C.3     1  UNL1        0.0258
     36 C         143.7388  141.0913  164.3427 C.ar    1  UNL1        0.0212
     37 C         144.3310  142.4682  164.4020 C.ar    1  UNL1        0.0289
     38 C         144.2968  143.2447  165.6848 C.ar    1  UNL1        0.1399
     39 F         144.8889  144.6216  165.7441 F       1  UNL1       -0.2042
     40 C         143.6705  142.6444  166.9085 C.ar    1  UNL1        0.0335
     41 C         143.0783  141.2674  166.8493 C.ar    1  UNL1        0.0735
     42 C         143.1125  140.4910  165.5663 C.ar    1  UNL1        0.0032
     43 C         142.4520  140.6671  168.0729 C.3     1  UNL1        0.4186
     44 F         141.8257  140.0668  169.2966 F       1  UNL1       -0.1659
     45 F         142.9081  141.8438  168.8837 F       1  UNL1       -0.1659
     46 F         141.9958  139.4904  167.2621 F       1  UNL1       -0.1659
@<TRIPOS>UNITY_ATOM_ATTR
21 1
charge -1
@<TRIPOS>BOND
     1    23    24    1
     2    24     7    1
     3     7     8   ar
     4     8     9   ar
     5     9    10   ar
     6    10    13    1
     7    13    14   ar
     8    14    15   ar
     9    15    16   ar
    10    16    20    1
    11    20    21   ar
    12    20    22   ar
    13    16    17   ar
    14    17    18   ar
    15    18    19    1
    16    10    11   ar
    17    11    12   ar
    18    12     1    1
    19     1     2   ar
    20     2     3   ar
    21     3     4   ar
    22     4    25    1
    23    25    26    1
    24    25    27    1
    25     4     5   ar
    26     5     6   ar
    27     6    28    1
    28    28    29    1
    29    29    30   am
    30    30    31    2
    31    30    32    1
    32    32    33    1
    33    33    36    1
    34    36    37   ar
    35    37    38   ar
    36    38    39    1
    37    38    40   ar
    38    40    41   ar
    39    41    43    1
    40    43    44    1
    41    43    45    1
    42    43    46    1
    43    41    42   ar
    44    33    34    1
    45    34    35    1
    46    12     7   ar
    47     6     1   ar
    48    34    29    1
    49    18    13   ar
    50    42    36   ar
@<TRIPOS>MOLECULE
*****
 46 50 0 0 0
SMALL
GASTEIGER

@<TRIPOS>ATOM
      1 C         141.2882  140.4274  157.6765 C.ar    1  UNL1        0.0375
      2 C         142.1210  141.0667  156.6052 C.ar    1  UNL1        0.1031
      3 N         141.4574  141.7274  155.4334 N.ar    1  UNL1       -0.2121
      4 C         139.9608  141.7487  155.3329 C.ar    1  UNL1        0.2200
      5 N         139.1281  141.1094  156.4042 N.ar    1  UNL1       -0.2163
      6 C         139.7918  140.4487  157.5760 C.ar    1  UNL1        0.0836
      7 C         142.2829  138.3046  158.7965 C.ar    1  UNL1        0.1387
      8 C         142.9466  137.6439  159.9683 C.ar    1  UNL1        0.0369
      9 C         143.2794  138.4454  161.1917 C.ar    1  UNL1        0.0031
     10 C         142.9485  139.9075  161.2435 C.ar    1  UNL1       -0.0001
     11 C         142.2848  140.5681  160.0717 C.ar    1  UNL1        0.0031
     12 C         141.9520  139.7667  158.8483 C.ar    1  UNL1        0.0367
     13 C         143.2813  140.7090  162.4669 C.ar    1  UNL1       -0.0039
     14 C         143.9746  142.0321  162.3311 C.ar    1  UNL1       -0.0003
     15 C         144.3074  142.8336  163.5546 C.ar    1  UNL1        0.0011
     16 C         143.9468  142.3119  164.9139 C.ar    1  UNL1        0.0137
     17 C         143.2535  140.9888  165.0497 C.ar    1  UNL1       -0.0031
     18 C         142.9207  140.1873  163.8263 C.ar    1  UNL1       -0.0218
     19 C         142.2273  138.8641  163.9622 C.3     1  UNL1        0.0310
     20 C         144.2796  143.1134  166.1374 C.2     1  UNL1        0.0729
     21 O         145.2482  144.2550  166.0456 O.co2   1  UNL1       -0.5446
     22 O         143.6438  142.7733  167.4526 O.co2   1  UNL1       -0.5446
     23 C         142.8755  136.4153  157.1144 C.3     1  UNL1        0.2525
     24 O         141.9501  137.5031  157.5731 O.3     1  UNL1       -0.4714
     25 N         139.2972  142.4094  154.1612 N.pl3   1  UNL1       -0.2747
     26 C         138.3294  143.5337  154.3832 C.3     1  UNL1        0.1151
     27 C         139.6013  141.9458  152.7675 C.3     1  UNL1        0.1151
     28 C         138.9590  139.8093  158.6473 C.3     1  UNL1        0.1428
     29 N         138.8358  140.4630  159.9918 N.am    1  UNL1       -0.2380
     30 C         138.4495  141.8899  160.2462 C.2     1  UNL1        0.4055
     31 O         138.1187  142.9136  159.2010 O.2     1  UNL1       -0.2262
     32 O         138.4522  142.1134  161.7295 O.3     1  UNL1       -0.4320
     33 C         138.8401  140.8245  162.3917 C.3     1  UNL1        0.2108
     34 C         139.0771  139.8045  161.3177 C.3     1  UNL1        0.1233
     35 C         139.4841  138.3768  161.5320 C.3     1  UNL1        0.0258
     36 C         138.9683  140.5958  163.8686 C.ar    1  UNL1        0.0212
     37 C         139.6812  141.6008  164.7241 C.ar    1  UNL1        0.0289
     38 C         139.8095  141.3721  166.2009 C.ar    1  UNL1        0.1399
     39 F         140.5223  142.3771  167.0564 F       1  UNL1       -0.2042
     40 C         139.2249  140.1384  166.8224 C.ar    1  UNL1        0.0335
     41 C         138.5121  139.1333  165.9669 C.ar    1  UNL1        0.0735
     42 C         138.3838  139.3621  164.4900 C.ar    1  UNL1        0.0032
     43 C         137.9275  137.8996  166.5884 C.3     1  UNL1        0.4186
     44 F         137.3430  136.6659  167.2099 F       1  UNL1       -0.1659
     45 F         138.5062  137.0681  165.4822 F       1  UNL1       -0.1659
     46 F         137.3488  138.7310  167.6947 F       1  UNL1       -0.1659
@<TRIPOS>UNITY_ATOM_ATTR
21 1
charge -1
@<TRIPOS>BOND
     1    23    24    1
     2    24     7    1
     3     7     8   ar
     4     8     9   ar
     5     9    10   ar
     6    10    13    1
     7    13    14   ar
     8    14    15   ar
     9    15    16   ar
    10    16    20    1
    11    20    21   ar
    12    20    22   ar
    13    16    17   ar
    14    17    18   ar
    15    18    19    1
    16    10    11   ar
    17    11    12   ar
    18    12     1    1
    19     1     2   ar
    20     2     3   ar
    21     3     4   ar
    22     4    25    1
    23    25    26    1
    24    25    27    1
    25     4     5   ar
    26     5     6   ar
    27     6    28    1
    28    28    29    1
    29    29    30   am
    30    30    31    2
    31    30    32    1
    32    32    33    1
    33    33    36    1
    34    36    37   ar
    35    37    38   ar
    36    38    39    1
    37    38    40   ar
    38    40    41   ar
    39    41    43    1
    40    43    44    1
    41    43    45    1
    42    43    46    1
    43    41    42   ar
    44    33    34    1
    45    34    35    1
    46    12     7   ar
    47     6     1   ar
    48    34    29    1
    49    18    13   ar
    50    42    36   ar
@<TRIPOS>MOLECULE
*****
 46 50 0 0 0
SMALL
GASTEIGER

@<TRIPOS>ATOM
      1 C         142.2015  141.6771  158.9169 C.ar    1  UNL1        0.0375
      2 C         142.9617  140.6042  158.1952 C.ar    1  UNL1        0.1031
      3 N         144.3590  140.8671  157.7173 N.ar    1  UNL1       -0.2121
      4 C         144.9962  142.2030  157.9612 C.ar    1  UNL1        0.2200
      5 N         144.2360  143.2759  158.6829 N.ar    1  UNL1       -0.2163
      6 C         142.8386  143.0130  159.1608 C.ar    1  UNL1        0.0836
      7 C         139.6402  141.6620  158.4817 C.ar    1  UNL1        0.1387
      8 C         138.2429  141.3990  158.9595 C.ar    1  UNL1        0.0369
      9 C         138.0096  140.8882  160.3504 C.ar    1  UNL1        0.0031
     10 C         139.1735  140.6403  161.2635 C.ar    1  UNL1       -0.0001
     11 C         140.5708  140.9033  160.7856 C.ar    1  UNL1        0.0031
     12 C         140.8041  141.4141  159.3947 C.ar    1  UNL1        0.0367
     13 C         138.9402  140.1295  162.6544 C.ar    1  UNL1       -0.0039
     14 C         138.2138  140.9801  163.6537 C.ar    1  UNL1       -0.0003
     15 C         137.9804  140.4693  165.0446 C.ar    1  UNL1        0.0011
     16 C         138.4736  139.1078  165.4362 C.ar    1  UNL1        0.0137
     17 C         139.2000  138.2573  164.4368 C.ar    1  UNL1       -0.0031
     18 C         139.4333  138.7681  163.0459 C.ar    1  UNL1       -0.0218
     19 C         140.1598  137.9175  162.0465 C.3     1  UNL1        0.0310
     20 C         138.2402  138.5970  166.8271 C.2     1  UNL1        0.0729
     21 O         137.4436  137.3444  167.0422 O.co2   1  UNL1       -0.5446
     22 O         138.8036  139.3388  168.0028 O.co2   1  UNL1       -0.5446
     23 C         139.6851  143.6292  156.7852 C.3     1  UNL1        0.2525
     24 O         139.8735  142.1728  157.0908 O.3     1  UNL1       -0.4714
     25 N         146.3935  142.4659  157.4834 N.pl3   1  UNL1       -0.2747
     26 C         146.8379  141.9524  156.1459 C.3     1  UNL1        0.1151
     27 C         147.3464  143.2424  158.3430 C.3     1  UNL1        0.1151
     28 C         142.0784  144.0859  159.8825 C.3     1  UNL1        0.1428
     29 N         141.5056  143.8141  161.2419 N.am    1  UNL1       -0.2380
     30 C         140.1845  144.3046  161.7561 C.2     1  UNL1        0.4055
     31 O         139.2044  145.1528  161.0012 O.2     1  UNL1       -0.2262
     32 O         140.0157  143.7978  163.1578 O.3     1  UNL1       -0.4320
     33 C         141.2324  142.9941  163.5098 C.3     1  UNL1        0.2108
     34 C         142.1532  143.0043  162.3258 C.3     1  UNL1        0.1233
     35 C         143.4873  142.3240  162.2404 C.3     1  UNL1        0.0258
     36 C         141.4841  142.3020  164.8165 C.ar    1  UNL1        0.0212
     37 C         141.1579  142.9938  166.1069 C.ar    1  UNL1        0.0289
     38 C         141.4096  142.3016  167.4135 C.ar    1  UNL1        0.1399
     39 F         141.0833  142.9934  168.7038 F       1  UNL1       -0.2042
     40 C         141.9875  140.9175  167.4299 C.ar    1  UNL1        0.0335
     41 C         142.3137  140.2256  166.1396 C.ar    1  UNL1        0.0735
     42 C         142.0620  140.9179  164.8329 C.ar    1  UNL1        0.0032
     43 C         142.8917  138.8415  166.1560 C.3     1  UNL1        0.4186
     44 F         143.4696  137.4574  166.1724 F       1  UNL1       -0.1659
     45 F         143.2822  139.0216  167.5930 F       1  UNL1       -0.1659
     46 F         142.5012  138.6614  164.7190 F       1  UNL1       -0.1659
@<TRIPOS>UNITY_ATOM_ATTR
21 1
charge -1
@<TRIPOS>BOND
     1    23    24    1
     2    24     7    1
     3     7     8   ar
     4     8     9   ar
     5     9    10   ar
     6    10    13    1
     7    13    14   ar
     8    14    15   ar
     9    15    16   ar
    10    16    20    1
    11    20    21   ar
    12    20    22   ar
    13    16    17   ar
    14    17    18   ar
    15    18    19    1
    16    10    11   ar
    17    11    12   ar
    18    12     1    1
    19     1     2   ar
    20     2     3   ar
    21     3     4   ar
    22     4    25    1
    23    25    26    1
    24    25    27    1
    25     4     5   ar
    26     5     6   ar
    27     6    28    1
    28    28    29    1
    29    29    30   am
    30    30    31    2
    31    30    32    1
    32    32    33    1
    33    33    36    1
    34    36    37   ar
    35    37    38   ar
    36    38    39    1
    37    38    40   ar
    38    40    41   ar
    39    41    43    1
    40    43    44    1
    41    43    45    1
    42    43    46    1
    43    41    42   ar
    44    33    34    1
    45    34    35    1
    46    12     7   ar
    47     6     1   ar
    48    34    29    1
    49    18    13   ar
    50    42    36   ar
@<TRIPOS>MOLECULE
*****
 46 50 0 0 0
SMALL
GASTEIGER

@<TRIPOS>ATOM
      1 C         139.8773  141.0765  158.2168 C.ar    1  UNL1        0.0375
      2 C         139.3919  139.8528  157.4978 C.ar    1  UNL1        0.1031
      3 N         138.0428  139.8539  156.8421 N.ar    1  UNL1       -0.2121
      4 C         137.1791  141.0786  156.9055 C.ar    1  UNL1        0.2200
      5 N         137.6644  142.3023  157.6246 N.ar    1  UNL1       -0.2163
      6 C         139.0136  142.3012  158.2803 C.ar    1  UNL1        0.0836
      7 C         142.4268  141.5670  158.1192 C.ar    1  UNL1        0.1387
      8 C         143.7759  141.5659  158.7749 C.ar    1  UNL1        0.0369
      9 C         143.9246  141.0732  160.1839 C.ar    1  UNL1        0.0031
     10 C         142.7243  140.5817  160.9371 C.ar    1  UNL1       -0.0001
     11 C         141.3752  140.5828  160.2815 C.ar    1  UNL1        0.0031
     12 C         141.2265  141.0754  158.8725 C.ar    1  UNL1        0.0367
     13 C         142.8730  140.0890  162.3461 C.ar    1  UNL1       -0.0039
     14 C         143.4735  140.9800  163.3927 C.ar    1  UNL1       -0.0003
     15 C         143.6222  140.4873  164.8017 C.ar    1  UNL1        0.0011
     16 C         143.1705  139.1037  165.1640 C.ar    1  UNL1        0.0137
     17 C         142.5700  138.2127  164.1174 C.ar    1  UNL1       -0.0031
     18 C         142.4213  138.7053  162.7084 C.ar    1  UNL1       -0.0218
     19 C         141.8207  137.8142  161.6618 C.3     1  UNL1        0.0310
     20 C         143.3192  138.6110  166.5730 C.2     1  UNL1        0.0729
     21 O         144.3492  137.5704  166.8988 O.co2   1  UNL1       -0.5446
     22 O         142.4380  139.1589  167.6560 O.co2   1  UNL1       -0.5446
     23 C         142.3157  143.5313  156.4224 C.3     1  UNL1        0.2525
     24 O         142.2781  142.0597  156.7103 O.3     1  UNL1       -0.4714
     25 N         135.8300  141.0797  156.2499 N.pl3   1  UNL1       -0.2747
     26 C         135.5646  141.9820  155.0814 C.3     1  UNL1        0.1151
     27 C         134.7462  140.1783  156.7627 C.3     1  UNL1        0.1151
     28 C         139.4990  143.5249  158.9993 C.3     1  UNL1        0.1428
     29 N         140.0683  143.4059  160.3820 N.am    1  UNL1       -0.2380
     30 C         141.3600  144.0017  160.8578 C.2     1  UNL1        0.4055
     31 O         142.3092  144.8211  160.0346 O.2     1  UNL1       -0.2262
     32 O         141.5359  143.6343  162.3015 O.3     1  UNL1       -0.4320
     33 C         140.3528  142.8114  162.7179 C.3     1  UNL1        0.2108
     34 C         139.4458  142.6703  161.5315 C.3     1  UNL1        0.1233
     35 C         138.1448  141.9245  161.5002 C.3     1  UNL1        0.0258
     36 C         140.1181  142.2316  164.0811 C.ar    1  UNL1        0.0212
     37 C         140.3364  143.0744  165.3025 C.ar    1  UNL1        0.0289
     38 C         140.1016  142.4946  166.6658 C.ar    1  UNL1        0.1399
     39 F         140.3199  143.3375  167.8871 F       1  UNL1       -0.2042
     40 C         139.6484  141.0717  166.8077 C.ar    1  UNL1        0.0335
     41 C         139.4301  140.2287  165.5863 C.ar    1  UNL1        0.0735
     42 C         139.6649  140.8087  164.2230 C.ar    1  UNL1        0.0032
     43 C         138.9770  138.8059  165.7282 C.3     1  UNL1        0.4186
     44 F         138.5238  137.3830  165.8702 F       1  UNL1       -0.1659
     45 F         139.3789  138.5362  164.3085 F       1  UNL1       -0.1659
     46 F         138.5750  139.0755  167.1480 F       1  UNL1       -0.1659
@<TRIPOS>UNITY_ATOM_ATTR
21 1
charge -1
@<TRIPOS>BOND
     1    23    24    1
     2    24     7    1
     3     7     8   ar
     4     8     9   ar
     5     9    10   ar
     6    10    13    1
     7    13    14   ar
     8    14    15   ar
     9    15    16   ar
    10    16    20    1
    11    20    21   ar
    12    20    22   ar
    13    16    17   ar
    14    17    18   ar
    15    18    19    1
    16    10    11   ar
    17    11    12   ar
    18    12     1    1
    19     1     2   ar
    20     2     3   ar
    21     3     4   ar
    22     4    25    1
    23    25    26    1
    24    25    27    1
    25     4     5   ar
    26     5     6   ar
    27     6    28    1
    28    28    29    1
    29    29    30   am
    30    30    31    2
    31    30    32    1
    32    32    33    1
    33    33    36    1
    34    36    37   ar
    35    37    38   ar
    36    38    39    1
    37    38    40   ar
    38    40    41   ar
    39    41    43    1
    40    43    44    1
    41    43    45    1
    42    43    46    1
    43    41    42   ar
    44    33    34    1
    45    34    35    1
    46    12     7   ar
    47     6     1   ar
    48    34    29    1
    49    18    13   ar
    50    42    36   ar
@<TRIPOS>MOLECULE
*****
 46 50 0 0 0
SMALL
GASTEIGER

@<TRIPOS>ATOM
      1 C         140.3801  141.9227  158.6027 C.ar    1  UNL1        0.0375
      2 C         141.3752  142.2638  157.5334 C.ar    1  UNL1        0.1031
      3 N         141.3399  143.6129  156.8788 N.ar    1  UNL1       -0.2121
      4 C         140.3095  144.6211  157.2935 C.ar    1  UNL1        0.2200
      5 N         139.3144  144.2800  158.3628 N.ar    1  UNL1       -0.2163
      6 C         139.3497  142.9308  159.0174 C.ar    1  UNL1        0.0836
      7 C         139.8143  139.3873  158.5634 C.ar    1  UNL1        0.1387
      8 C         139.8497  138.0382  159.2181 C.ar    1  UNL1        0.0369
      9 C         140.4862  137.8753  160.5665 C.ar    1  UNL1        0.0031
     10 C         141.0873  139.0615  161.2604 C.ar    1  UNL1       -0.0001
     11 C         141.0519  140.4106  160.6058 C.ar    1  UNL1        0.0031
     12 C         140.4154  140.5735  159.2573 C.ar    1  UNL1        0.0367
     13 C         141.7237  138.8986  162.6088 C.ar    1  UNL1       -0.0039
     14 C         140.9162  138.3802  163.7617 C.ar    1  UNL1       -0.0003
     15 C         141.5527  138.2173  165.1101 C.ar    1  UNL1        0.0011
     16 C         142.9967  138.5728  165.3058 C.ar    1  UNL1        0.0137
     17 C         143.8043  139.0911  164.1529 C.ar    1  UNL1       -0.0031
     18 C         143.1678  139.2540  162.8045 C.ar    1  UNL1       -0.0218
     19 C         143.9755  139.7724  161.6516 C.3     1  UNL1        0.0310
     20 C         143.6332  138.4099  166.6542 C.2     1  UNL1        0.0729
     21 O         144.6845  137.3611  166.8656 O.co2   1  UNL1       -0.5446
     22 O         143.2183  139.2957  167.7914 O.co2   1  UNL1       -0.5446
     23 C         139.4330  138.5378  156.1380 C.3     1  UNL1        0.2525
     24 O         139.1778  139.5502  157.2150 O.3     1  UNL1       -0.4714
     25 N         140.2742  145.9702  156.6389 N.pl3   1  UNL1       -0.2747
     26 C         141.1837  146.2674  155.4837 C.3     1  UNL1        0.1151
     27 C         139.3293  147.0222  157.1395 C.3     1  UNL1        0.1151
     28 C         138.3546  142.5897  160.0867 C.3     1  UNL1        0.1428
     29 N         138.7342  142.7161  161.5324 N.am    1  UNL1       -0.2380
     30 C         139.2779  143.9462  162.1968 C.2     1  UNL1        0.4055
     31 O         139.5374  145.2657  161.5324 O.2     1  UNL1       -0.2262
     32 O         139.5166  143.6250  163.6426 O.3     1  UNL1       -0.4320
     33 C         139.1204  142.1964  163.8715 C.3     1  UNL1        0.2108
     34 C         138.6369  141.6348  162.5674 C.3     1  UNL1        0.1233
     35 C         138.1428  140.2372  162.3384 C.3     1  UNL1        0.0258
     36 C         139.1946  141.4591  165.1756 C.ar    1  UNL1        0.0212
     37 C         140.0402  141.9945  166.2929 C.ar    1  UNL1        0.0289
     38 C         140.1144  141.2572  167.5970 C.ar    1  UNL1        0.1399
     39 F         140.9600  141.7926  168.7142 F       1  UNL1       -0.2042
     40 C         139.3432  139.9843  167.7838 C.ar    1  UNL1        0.0335
     41 C         138.4976  139.4487  166.6665 C.ar    1  UNL1        0.0735
     42 C         138.4234  140.1862  165.3624 C.ar    1  UNL1        0.0032
     43 C         137.7263  138.1759  166.8534 C.3     1  UNL1        0.4186
     44 F         136.9551  136.9030  167.0403 F       1  UNL1       -0.1659
     45 F         138.2017  137.6915  165.5157 F       1  UNL1       -0.1659
     46 F         137.2510  138.6602  168.1911 F       1  UNL1       -0.1659
@<TRIPOS>UNITY_ATOM_ATTR
21 1
charge -1
@<TRIPOS>BOND
     1    23    24    1
     2    24     7    1
     3     7     8   ar
     4     8     9   ar
     5     9    10   ar
     6    10    13    1
     7    13    14   ar
     8    14    15   ar
     9    15    16   ar
    10    16    20    1
    11    20    21   ar
    12    20    22   ar
    13    16    17   ar
    14    17    18   ar
    15    18    19    1
    16    10    11   ar
    17    11    12   ar
    18    12     1    1
    19     1     2   ar
    20     2     3   ar
    21     3     4   ar
    22     4    25    1
    23    25    26    1
    24    25    27    1
    25     4     5   ar
    26     5     6   ar
    27     6    28    1
    28    28    29    1
    29    29    30   am
    30    30    31    2
    31    30    32    1
    32    32    33    1
    33    33    36    1
    34    36    37   ar
    35    37    38   ar
    36    38    39    1
    37    38    40   ar
    38    40    41   ar
    39    41    43    1
    40    43    44    1
    41    43    45    1
    42    43    46    1
    43    41    42   ar
    44    33    34    1
    45    34    35    1
    46    12     7   ar
    47     6     1   ar
    48    34    29    1
    49    18    13   ar
    50    42    36   ar
@<TRIPOS>MOLECULE
*****
 46 50 0 0 0
SMALL
GASTEIGER

@<TRIPOS>ATOM
      1 C         141.9155  139.8837  157.4743 C.ar    1  UNL1        0.0375
      2 C         142.3866  138.6333  156.7928 C.ar    1  UNL1        0.1031
      3 N         141.5378  137.9892  155.7371 N.ar    1  UNL1       -0.2121
      4 C         140.2178  138.5956  155.3628 C.ar    1  UNL1        0.2200
      5 N         139.7467  139.8460  156.0444 N.ar    1  UNL1       -0.2163
      6 C         140.5956  140.4901  157.1002 C.ar    1  UNL1        0.0836
      7 C         143.6150  141.7149  158.1877 C.ar    1  UNL1        0.1387
      8 C         144.4638  142.3589  159.2434 C.ar    1  UNL1        0.0369
      9 C         144.4621  141.8158  160.6416 C.ar    1  UNL1        0.0031
     10 C         143.6116  140.6286  160.9841 C.ar    1  UNL1       -0.0001
     11 C         142.7628  139.9846  159.9283 C.ar    1  UNL1        0.0031
     12 C         142.7644  140.5278  158.5301 C.ar    1  UNL1        0.0367
     13 C         143.6100  140.0855  162.3823 C.ar    1  UNL1       -0.0039
     14 C         144.7985  140.3004  163.2718 C.ar    1  UNL1       -0.0003
     15 C         144.7968  139.7573  164.6700 C.ar    1  UNL1        0.0011
     16 C         143.6067  138.9993  165.1788 C.ar    1  UNL1        0.0137
     17 C         142.4182  138.7843  164.2893 C.ar    1  UNL1       -0.0031
     18 C         142.4198  139.3275  162.8911 C.ar    1  UNL1       -0.0218
     19 C         141.2312  139.1125  162.0016 C.3     1  UNL1        0.0310
     20 C         143.6050  138.4561  166.5770 C.2     1  UNL1        0.0729
     21 O         144.4793  137.2894  166.9294 O.co2   1  UNL1       -0.5446
     22 O         142.7290  139.0798  167.6228 O.co2   1  UNL1       -0.5446
     23 C         142.9564  143.5722  156.4946 C.3     1  UNL1        0.2525
     24 O         143.6166  142.2580  156.7895 O.3     1  UNL1       -0.4714
     25 N         139.3689  137.9515  154.3071 N.pl3   1  UNL1       -0.2747
     26 C         137.9158  137.6885  154.5703 C.3     1  UNL1        0.1151
     27 C         139.9732  137.5704  152.9882 C.3     1  UNL1        0.1151
     28 C         140.1245  141.7405  157.7817 C.3     1  UNL1        0.1428
     29 N         139.5709  141.6726  159.1742 N.am    1  UNL1       -0.2380
     30 C         138.4268  140.8147  159.6272 C.2     1  UNL1        0.4055
     31 O         137.6356  139.8742  158.7675 O.2     1  UNL1       -0.2262
     32 O         138.2130  141.0626  161.0912 O.3     1  UNL1       -0.4320
     33 C         139.2249  142.0736  161.5428 C.3     1  UNL1        0.2108
     34 C         140.0641  142.4506  160.3580 C.3     1  UNL1        0.1233
     35 C         141.1975  143.4331  160.3572 C.3     1  UNL1        0.0258
     36 C         139.3718  142.6130  162.9346 C.ar    1  UNL1        0.0212
     37 C         138.3054  143.4947  163.5138 C.ar    1  UNL1        0.0289
     38 C         138.4523  144.0340  164.9057 C.ar    1  UNL1        0.1399
     39 F         137.3859  144.9158  165.4848 F       1  UNL1       -0.2042
     40 C         139.6656  143.6917  165.7186 C.ar    1  UNL1        0.0335
     41 C         140.7320  142.8099  165.1395 C.ar    1  UNL1        0.0735
     42 C         140.5851  142.2706  163.7475 C.ar    1  UNL1        0.0032
     43 C         141.9453  142.4675  165.9523 C.3     1  UNL1        0.4186
     44 F         143.1586  142.1252  166.7652 F       1  UNL1       -0.1659
     45 F         142.7671  142.4043  164.6991 F       1  UNL1       -0.1659
     46 F         141.1235  142.5308  167.2056 F       1  UNL1       -0.1659
@<TRIPOS>UNITY_ATOM_ATTR
21 1
charge -1
@<TRIPOS>BOND
     1    23    24    1
     2    24     7    1
     3     7     8   ar
     4     8     9   ar
     5     9    10   ar
     6    10    13    1
     7    13    14   ar
     8    14    15   ar
     9    15    16   ar
    10    16    20    1
    11    20    21   ar
    12    20    22   ar
    13    16    17   ar
    14    17    18   ar
    15    18    19    1
    16    10    11   ar
    17    11    12   ar
    18    12     1    1
    19     1     2   ar
    20     2     3   ar
    21     3     4   ar
    22     4    25    1
    23    25    26    1
    24    25    27    1
    25     4     5   ar
    26     5     6   ar
    27     6    28    1
    28    28    29    1
    29    29    30   am
    30    30    31    2
    31    30    32    1
    32    32    33    1
    33    33    36    1
    34    36    37   ar
    35    37    38   ar
    36    38    39    1
    37    38    40   ar
    38    40    41   ar
    39    41    43    1
    40    43    44    1
    41    43    45    1
    42    43    46    1
    43    41    42   ar
    44    33    34    1
    45    34    35    1
    46    12     7   ar
    47     6     1   ar
    48    34    29    1
    49    18    13   ar
    50    42    36   ar
