@<TRIPOS>MOLECULE
*****
 30 34 0 0 0
SMALL
GASTEIGER

@<TRIPOS>ATOM
      1 C         143.9009  144.1432  164.3220 C.3     1  UNL1        0.0294
      2 C         143.1442  145.1607  163.5207 C.3     1  UNL1        0.0666
      3 S         141.6458  145.1977  163.5786 S.3     1  UNL1       -0.0756
      4 C         141.3135  142.4002  161.9315 C.3     1  UNL1        0.1340
      5 N         140.7303  142.7042  163.2796 N.ar    1  UNL1       -0.2884
      6 C         140.8831  143.9901  164.0367 C.ar    1  UNL1        0.1932
      7 N         140.1391  143.8563  165.3323 N.ar    1  UNL1       -0.1221
      8 N         139.5266  142.4878  165.3760 N.ar    1  UNL1       -0.1282
      9 C         139.8919  141.7757  164.1073 C.ar    1  UNL1        0.1683
     10 C         139.4896  140.3802  163.7323 C.ar    1  UNL1        0.0551
     11 C         140.1205  139.2068  164.4216 C.ar    1  UNL1        0.0062
     12 C         139.7181  137.8113  164.0465 C.ar    1  UNL1        0.0208
     13 C         138.6848  137.5892  162.9821 C.ar    1  UNL1        0.0989
     14 N         138.0539  138.7626  162.2927 N.ar    1  UNL1       -0.2422
     15 C         138.4563  140.1581  162.6678 C.ar    1  UNL1        0.1019
     16 C         144.5631  142.9871  163.6328 C.3     1  UNL1        0.0730
     17 N         144.3344  141.5890  164.1259 N.3     1  UNL1       -0.2726
     18 C         144.8090  140.3309  163.4612 C.3     1  UNL1        0.0721
     19 C         144.3589  139.1680  164.2948 C.3     1  UNL1        0.0190
     20 C         143.6061  139.7074  165.4748 C.3     1  UNL1        0.0201
     21 C         143.3000  138.3734  166.0886 C.3     1  UNL1        0.0061
     22 C         142.8253  139.6315  166.7534 C.3     1  UNL1        0.0237
     23 C         143.5909  141.2037  165.3704 C.3     1  UNL1        0.0724
     24 C         142.1006  140.3140  167.8753 C.ar    1  UNL1       -0.0223
     25 C         140.6010  140.3098  167.9119 C.ar    1  UNL1       -0.0020
     26 C         139.8762  140.9924  169.0338 C.ar    1  UNL1        0.0293
     27 C         140.6510  141.6791  170.1192 C.ar    1  UNL1        0.1401
     28 F         139.9262  142.3616  171.2412 F       1  UNL1       -0.2042
     29 C         142.1506  141.6832  170.0827 C.ar    1  UNL1        0.0293
     30 C         142.8753  141.0007  168.9607 C.ar    1  UNL1       -0.0020
@<TRIPOS>BOND
     1     4     5    1
     2     5     6   ar
     3     6     3    1
     4     3     2    1
     5     2     1    1
     6     1    16    1
     7    16    17    1
     8    17    18    1
     9    18    19    1
    10    20    19    1
    11    20    21    1
    12    21    22    1
    13    22    24    1
    14    24    25   ar
    15    25    26   ar
    16    26    27   ar
    17    27    28    1
    18    27    29   ar
    19    29    30   ar
    20    20    23    1
    21     6     7   ar
    22     7     8   ar
    23     8     9   ar
    24     9    10    1
    25    10    11   ar
    26    11    12   ar
    27    12    13   ar
    28    13    14   ar
    29    14    15   ar
    30     9     5   ar
    31    15    10   ar
    32    23    17    1
    33    22    20    1
    34    30    24   ar
@<TRIPOS>MOLECULE
*****
 30 34 0 0 0
SMALL
GASTEIGER

@<TRIPOS>ATOM
      1 C         142.5906  138.9580  161.9446 C.3     1  UNL1        0.0294
      2 C         142.0538  137.8512  162.8030 C.3     1  UNL1        0.0666
      3 S         141.0252  138.1484  163.8535 S.3     1  UNL1       -0.0756
      4 C         139.0071  139.7920  165.8221 C.3     1  UNL1        0.1340
      5 N         140.4888  139.6443  166.0028 N.ar    1  UNL1       -0.2884
      6 C         141.4164  138.8888  165.0980 C.ar    1  UNL1        0.1932
      7 N         142.8040  139.0037  165.6561 N.ar    1  UNL1       -0.1221
      8 N         142.7339  139.8302  166.9059 N.ar    1  UNL1       -0.1282
      9 C         141.3031  140.2261  167.1202 C.ar    1  UNL1        0.1683
     10 C         140.7786  141.0578  168.2530 C.ar    1  UNL1        0.0551
     11 C         141.0709  142.5282  168.3019 C.ar    1  UNL1        0.0062
     12 C         140.5465  143.3599  169.4347 C.ar    1  UNL1        0.0208
     13 C         139.7296  142.7211  170.5186 C.ar    1  UNL1        0.0989
     14 N         139.4373  141.2507  170.4698 N.ar    1  UNL1       -0.2422
     15 C         139.9618  140.4190  169.3369 C.ar    1  UNL1        0.1019
     16 C         143.9998  139.4366  162.1321 C.3     1  UNL1        0.0730
     17 N         144.2730  140.6596  162.9566 N.3     1  UNL1       -0.2726
     18 C         145.5892  141.0317  163.5725 C.3     1  UNL1        0.0721
     19 C         145.4076  142.3272  164.3065 C.3     1  UNL1        0.0190
     20 C         143.9793  142.7557  164.1442 C.3     1  UNL1        0.0201
     21 C         144.1017  144.0167  164.9472 C.3     1  UNL1        0.0061
     22 C         142.7856  143.6446  164.3314 C.3     1  UNL1        0.0237
     23 C         143.2781  141.7250  163.3100 C.3     1  UNL1        0.0724
     24 C         141.3366  143.9429  164.0838 C.ar    1  UNL1       -0.0223
     25 C         140.9349  144.7932  162.9152 C.ar    1  UNL1       -0.0020
     26 C         139.4858  145.0916  162.6677 C.ar    1  UNL1        0.0293
     27 C         138.4385  144.5395  163.5887 C.ar    1  UNL1        0.1401
     28 F         136.9895  144.8378  163.3412 F       1  UNL1       -0.2042
     29 C         138.8402  143.6891  164.7573 C.ar    1  UNL1        0.0293
     30 C         140.2892  143.3908  165.0048 C.ar    1  UNL1       -0.0020
@<TRIPOS>BOND
     1     4     5    1
     2     5     6   ar
     3     6     3    1
     4     3     2    1
     5     2     1    1
     6     1    16    1
     7    16    17    1
     8    17    18    1
     9    18    19    1
    10    20    19    1
    11    20    21    1
    12    21    22    1
    13    22    24    1
    14    24    25   ar
    15    25    26   ar
    16    26    27   ar
    17    27    28    1
    18    27    29   ar
    19    29    30   ar
    20    20    23    1
    21     6     7   ar
    22     7     8   ar
    23     8     9   ar
    24     9    10    1
    25    10    11   ar
    26    11    12   ar
    27    12    13   ar
    28    13    14   ar
    29    14    15   ar
    30     9     5   ar
    31    15    10   ar
    32    23    17    1
    33    22    20    1
    34    30    24   ar
@<TRIPOS>MOLECULE
*****
 30 34 0 0 0
SMALL
GASTEIGER

@<TRIPOS>ATOM
      1 C         141.5243  137.5635  163.6772 C.3     1  UNL1        0.0294
      2 C         140.1836  137.3825  163.0293 C.3     1  UNL1        0.0666
      3 S         138.9762  138.0647  163.6008 S.3     1  UNL1       -0.0756
      4 C         139.7196  140.5142  161.5767 C.3     1  UNL1        0.1340
      5 N         139.3791  140.6452  163.0317 N.ar    1  UNL1       -0.2884
      6 C         139.0374  139.5193  163.9621 C.ar    1  UNL1        0.1932
      7 N         138.7677  140.1033  165.3172 N.ar    1  UNL1       -0.1221
      8 N         138.9428  141.5901  165.2243 N.ar    1  UNL1       -0.1282
      9 C         139.3206  141.9251  163.8118 C.ar    1  UNL1        0.1683
     10 C         139.5923  143.2987  163.2739 C.ar    1  UNL1        0.0551
     11 C         140.9645  143.8929  163.3927 C.ar    1  UNL1        0.0062
     12 C         141.2361  145.2665  162.8547 C.ar    1  UNL1        0.0208
     13 C         140.1355  146.0460  162.1981 C.ar    1  UNL1        0.0989
     14 N         138.7633  145.4518  162.0793 N.ar    1  UNL1       -0.2422
     15 C         138.4917  144.0782  162.6172 C.ar    1  UNL1        0.1019
     16 C         142.5548  138.4443  163.0353 C.3     1  UNL1        0.0730
     17 N         142.9692  139.7225  163.7020 N.3     1  UNL1       -0.2726
     18 C         143.8033  140.8073  163.0876 C.3     1  UNL1        0.0721
     19 C         143.9719  141.8955  164.1061 C.3     1  UNL1        0.0190
     20 C         143.2420  141.4833  165.3500 C.3     1  UNL1        0.0201
     21 C         143.5778  142.7113  166.1431 C.3     1  UNL1        0.0061
     22 C         142.7437  141.6266  166.7576 C.3     1  UNL1        0.0237
     23 C         142.6223  140.1403  165.1003 C.3     1  UNL1        0.0724
     24 C         141.9745  141.0830  167.9250 C.ar    1  UNL1       -0.0223
     25 C         142.5522  139.9733  168.7526 C.ar    1  UNL1       -0.0020
     26 C         141.7829  139.4298  169.9200 C.ar    1  UNL1        0.0293
     27 C         140.4361  139.9959  170.2598 C.ar    1  UNL1        0.1401
     28 F         139.6669  139.4523  171.4271 F       1  UNL1       -0.2042
     29 C         139.8585  141.1056  169.4321 C.ar    1  UNL1        0.0293
     30 C         140.6277  141.6492  168.2648 C.ar    1  UNL1       -0.0020
@<TRIPOS>BOND
     1     4     5    1
     2     5     6   ar
     3     6     3    1
     4     3     2    1
     5     2     1    1
     6     1    16    1
     7    16    17    1
     8    17    18    1
     9    18    19    1
    10    20    19    1
    11    20    21    1
    12    21    22    1
    13    22    24    1
    14    24    25   ar
    15    25    26   ar
    16    26    27   ar
    17    27    28    1
    18    27    29   ar
    19    29    30   ar
    20    20    23    1
    21     6     7   ar
    22     7     8   ar
    23     8     9   ar
    24     9    10    1
    25    10    11   ar
    26    11    12   ar
    27    12    13   ar
    28    13    14   ar
    29    14    15   ar
    30     9     5   ar
    31    15    10   ar
    32    23    17    1
    33    22    20    1
    34    30    24   ar
@<TRIPOS>MOLECULE
*****
 30 34 0 0 0
SMALL
GASTEIGER

@<TRIPOS>ATOM
      1 C         141.4997  145.1707  162.5603 C.3     1  UNL1        0.0294
      2 C         140.1452  145.6685  162.1510 C.3     1  UNL1        0.0666
      3 S         138.9204  145.1885  162.8717 S.3     1  UNL1       -0.0756
      4 C         139.8154  142.8792  164.9968 C.3     1  UNL1        0.1340
      5 N         138.9470  142.6784  163.7904 N.ar    1  UNL1       -0.2884
      6 C         138.5356  143.7399  162.8136 C.ar    1  UNL1        0.1932
      7 N         137.6718  143.0984  161.7684 N.ar    1  UNL1       -0.1221
      8 N         137.5493  141.6405  162.0993 N.ar    1  UNL1       -0.1282
      9 C         138.3374  141.3808  163.3489 C.ar    1  UNL1        0.1683
     10 C         138.4892  140.0563  164.0363 C.ar    1  UNL1        0.0551
     11 C         139.1126  138.9014  163.3100 C.ar    1  UNL1        0.0062
     12 C         139.2644  137.5769  163.9974 C.ar    1  UNL1        0.0208
     13 C         138.7929  137.4074  165.4113 C.ar    1  UNL1        0.0989
     14 N         138.1696  138.5623  166.1377 N.ar    1  UNL1       -0.2422
     15 C         138.0177  139.8868  165.4501 C.ar    1  UNL1        0.1019
     16 C         142.3283  144.3733  161.5971 C.3     1  UNL1        0.0730
     17 N         143.2698  143.3234  162.1082 N.3     1  UNL1       -0.2726
     18 C         144.4879  142.8107  161.3988 C.3     1  UNL1        0.0721
     19 C         145.1294  141.7723  162.2706 C.3     1  UNL1        0.0190
     20 C         144.3078  141.6432  163.5189 C.3     1  UNL1        0.0201
     21 C         145.1582  140.5855  164.1577 C.3     1  UNL1        0.0061
     22 C         143.9401  141.0982  164.8672 C.3     1  UNL1        0.0237
     23 C         143.1585  142.6018  163.4186 C.3     1  UNL1        0.0724
     24 C         143.0245  141.0795  166.0552 C.ar    1  UNL1       -0.0223
     25 C         143.0776  142.1915  167.0605 C.ar    1  UNL1       -0.0020
     26 C         142.1620  142.1729  168.2485 C.ar    1  UNL1        0.0293
     27 C         141.1934  141.0422  168.4312 C.ar    1  UNL1        0.1401
     28 F         140.2778  141.0236  169.6192 F       1  UNL1       -0.2042
     29 C         141.1403  139.9302  167.4259 C.ar    1  UNL1        0.0293
     30 C         142.0559  139.9489  166.2379 C.ar    1  UNL1       -0.0020
@<TRIPOS>BOND
     1     4     5    1
     2     5     6   ar
     3     6     3    1
     4     3     2    1
     5     2     1    1
     6     1    16    1
     7    16    17    1
     8    17    18    1
     9    18    19    1
    10    20    19    1
    11    20    21    1
    12    21    22    1
    13    22    24    1
    14    24    25   ar
    15    25    26   ar
    16    26    27   ar
    17    27    28    1
    18    27    29   ar
    19    29    30   ar
    20    20    23    1
    21     6     7   ar
    22     7     8   ar
    23     8     9   ar
    24     9    10    1
    25    10    11   ar
    26    11    12   ar
    27    12    13   ar
    28    13    14   ar
    29    14    15   ar
    30     9     5   ar
    31    15    10   ar
    32    23    17    1
    33    22    20    1
    34    30    24   ar
@<TRIPOS>MOLECULE
*****
 30 34 0 0 0
SMALL
GASTEIGER

@<TRIPOS>ATOM
      1 C         138.2385  138.4518  161.9213 C.3     1  UNL1        0.0294
      2 C         137.4646  139.3781  161.0308 C.3     1  UNL1        0.0666
      3 S         138.1396  140.5713  160.4219 S.3     1  UNL1       -0.0756
      4 C         141.2571  140.7348  161.3726 C.3     1  UNL1        0.1340
      5 N         140.1709  141.7012  161.7417 N.ar    1  UNL1       -0.2884
      6 C         138.7379  141.6260  161.3047 C.ar    1  UNL1        0.1932
      7 N         138.0083  142.7908  161.9056 N.ar    1  UNL1       -0.1221
      8 N         138.9904  143.5859  162.7139 N.ar    1  UNL1       -0.1282
      9 C         140.3270  142.9125  162.6127 C.ar    1  UNL1        0.1683
     10 C         141.5966  143.3701  163.2674 C.ar    1  UNL1        0.0551
     11 C         142.1730  142.5911  164.4124 C.ar    1  UNL1        0.0062
     12 C         143.4427  143.0487  165.0671 C.ar    1  UNL1        0.0208
     13 C         144.1359  144.2853  164.5767 C.ar    1  UNL1        0.0989
     14 N         143.5595  145.0642  163.4318 N.ar    1  UNL1       -0.2422
     15 C         142.2898  144.6066  162.7771 C.ar    1  UNL1        0.1019
     16 C         138.3799  138.7600  163.3825 C.3     1  UNL1        0.0730
     17 N         139.7214  138.6537  164.0451 N.3     1  UNL1       -0.2726
     18 C         140.8968  137.8731  163.5360 C.3     1  UNL1        0.0721
     19 C         142.0249  138.0462  164.5094 C.3     1  UNL1        0.0190
     20 C         141.5466  138.9337  165.6201 C.3     1  UNL1        0.0201
     21 C         142.8308  138.9207  166.3952 C.3     1  UNL1        0.0061
     22 C         141.6554  139.7013  166.9043 C.3     1  UNL1        0.0237
     23 C         140.1230  139.3091  165.3331 C.3     1  UNL1        0.0724
     24 C         141.0395  140.5950  167.9396 C.ar    1  UNL1       -0.0223
     25 C         141.3665  142.0588  167.9571 C.ar    1  UNL1       -0.0020
     26 C         140.7507  142.9526  168.9925 C.ar    1  UNL1        0.0293
     27 C         139.8078  142.3825  170.0103 C.ar    1  UNL1        0.1401
     28 F         139.1920  143.2762  171.0456 F       1  UNL1       -0.2042
     29 C         139.4808  140.9186  169.9928 C.ar    1  UNL1        0.0293
     30 C         140.0967  140.0249  168.9575 C.ar    1  UNL1       -0.0020
@<TRIPOS>BOND
     1     4     5    1
     2     5     6   ar
     3     6     3    1
     4     3     2    1
     5     2     1    1
     6     1    16    1
     7    16    17    1
     8    17    18    1
     9    18    19    1
    10    20    19    1
    11    20    21    1
    12    21    22    1
    13    22    24    1
    14    24    25   ar
    15    25    26   ar
    16    26    27   ar
    17    27    28    1
    18    27    29   ar
    19    29    30   ar
    20    20    23    1
    21     6     7   ar
    22     7     8   ar
    23     8     9   ar
    24     9    10    1
    25    10    11   ar
    26    11    12   ar
    27    12    13   ar
    28    13    14   ar
    29    14    15   ar
    30     9     5   ar
    31    15    10   ar
    32    23    17    1
    33    22    20    1
    34    30    24   ar
@<TRIPOS>MOLECULE
*****
 30 34 0 0 0
SMALL
GASTEIGER

@<TRIPOS>ATOM
      1 C         143.2624  137.7608  161.9328 C.3     1  UNL1        0.0294
      2 C         143.5660  138.5260  160.6788 C.3     1  UNL1        0.0666
      3 S         142.4582  138.8895  159.7352 S.3     1  UNL1       -0.0756
      4 C         142.0003  141.6254  161.4543 C.3     1  UNL1        0.1340
      5 N         140.9375  140.6421  161.0623 N.ar    1  UNL1       -0.2884
      6 C         141.1480  139.3846  160.2721 C.ar    1  UNL1        0.1932
      7 N         139.8182  138.7090  160.1132 N.ar    1  UNL1       -0.1221
      8 N         138.7859  139.5490  160.8051 N.ar    1  UNL1       -0.1282
      9 C         139.4776  140.7437  161.3917 C.ar    1  UNL1        0.1683
     10 C         138.8242  141.8465  162.1709 C.ar    1  UNL1        0.0551
     11 C         138.4251  141.6210  163.5991 C.ar    1  UNL1        0.0062
     12 C         137.7717  142.7237  164.3783 C.ar    1  UNL1        0.0208
     13 C         137.5175  144.0519  163.7291 C.ar    1  UNL1        0.0989
     14 N         137.9166  144.2774  162.3009 N.ar    1  UNL1       -0.2422
     15 C         138.5700  143.1746  161.5218 C.ar    1  UNL1        0.1019
     16 C         142.8933  138.4942  163.1881 C.3     1  UNL1        0.0730
     17 N         141.5278  138.3207  163.7842 N.3     1  UNL1       -0.2726
     18 C         140.4711  137.3698  163.3055 C.3     1  UNL1        0.0721
     19 C         139.2696  137.5292  164.1891 C.3     1  UNL1        0.0190
     20 C         139.5836  138.5785  165.2140 C.3     1  UNL1        0.0201
     21 C         138.2585  138.5157  165.9139 C.3     1  UNL1        0.0061
     22 C         139.3152  139.4666  166.3926 C.3     1  UNL1        0.0237
     23 C         140.9793  139.0677  164.9637 C.3     1  UNL1        0.0724
     24 C         139.7703  140.5283  167.3495 C.ar    1  UNL1       -0.0223
     25 C         140.2285  141.8591  166.8307 C.ar    1  UNL1       -0.0020
     26 C         140.6836  142.9208  167.7876 C.ar    1  UNL1        0.0293
     27 C         140.6805  142.6517  169.2632 C.ar    1  UNL1        0.1401
     28 F         141.1356  143.7135  170.2201 F       1  UNL1       -0.2042
     29 C         140.2222  141.3210  169.7820 C.ar    1  UNL1        0.0293
     30 C         139.7671  140.2593  168.8252 C.ar    1  UNL1       -0.0020
@<TRIPOS>BOND
     1     4     5    1
     2     5     6   ar
     3     6     3    1
     4     3     2    1
     5     2     1    1
     6     1    16    1
     7    16    17    1
     8    17    18    1
     9    18    19    1
    10    20    19    1
    11    20    21    1
    12    21    22    1
    13    22    24    1
    14    24    25   ar
    15    25    26   ar
    16    26    27   ar
    17    27    28    1
    18    27    29   ar
    19    29    30   ar
    20    20    23    1
    21     6     7   ar
    22     7     8   ar
    23     8     9   ar
    24     9    10    1
    25    10    11   ar
    26    11    12   ar
    27    12    13   ar
    28    13    14   ar
    29    14    15   ar
    30     9     5   ar
    31    15    10   ar
    32    23    17    1
    33    22    20    1
    34    30    24   ar
@<TRIPOS>MOLECULE
*****
 30 34 0 0 0
SMALL
GASTEIGER

@<TRIPOS>ATOM
      1 C         138.5514  144.0233  163.5830 C.3     1  UNL1        0.0294
      2 C         139.1683  145.1513  162.8103 C.3     1  UNL1        0.0666
      3 S         140.6584  145.2285  162.6569 S.3     1  UNL1       -0.0756
      4 C         140.8577  142.5776  160.7641 C.3     1  UNL1        0.1340
      5 N         141.5949  142.7992  162.0515 N.ar    1  UNL1       -0.2884
      6 C         141.5033  144.0177  162.9215 C.ar    1  UNL1        0.1932
      7 N         142.4049  143.8128  164.1027 N.ar    1  UNL1       -0.1221
      8 N         143.0538  142.4676  163.9626 N.ar    1  UNL1       -0.1282
      9 C         142.5532  141.8412  162.6950 C.ar    1  UNL1        0.1683
     10 C         142.9425  140.4934  162.1640 C.ar    1  UNL1        0.0551
     11 C         142.3693  139.2509  162.7787 C.ar    1  UNL1        0.0062
     12 C         142.7586  137.9031  162.2477 C.ar    1  UNL1        0.0208
     13 C         143.7211  137.7979  161.1020 C.ar    1  UNL1        0.0989
     14 N         144.2943  139.0403  160.4873 N.ar    1  UNL1       -0.2422
     15 C         143.9049  140.3881  161.0183 C.ar    1  UNL1        0.1019
     16 C         137.6632  143.0349  162.8871 C.3     1  UNL1        0.0730
     17 N         137.9589  141.5672  162.9777 N.3     1  UNL1       -0.2726
     18 C         137.5733  140.5262  161.9689 C.3     1  UNL1        0.0721
     19 C         138.0683  139.1984  162.4607 C.3     1  UNL1        0.0190
     20 C         138.7597  139.4187  163.7735 C.3     1  UNL1        0.0201
     21 C         139.1261  137.9820  164.0008 C.3     1  UNL1        0.0061
     22 C         139.5116  139.0230  165.0097 C.3     1  UNL1        0.0237
     23 C         138.6921  140.8827  164.0930 C.3     1  UNL1        0.0724
     24 C         140.1684  139.3955  166.3058 C.ar    1  UNL1       -0.0223
     25 C         139.3298  139.7894  167.4854 C.ar    1  UNL1       -0.0020
     26 C         139.9865  140.1620  168.7815 C.ar    1  UNL1        0.0293
     27 C         141.4818  140.1406  168.8980 C.ar    1  UNL1        0.1401
     28 F         142.1385  140.5132  170.1941 F       1  UNL1       -0.2042
     29 C         142.3204  139.7468  167.7183 C.ar    1  UNL1        0.0293
     30 C         141.6637  139.3742  166.4222 C.ar    1  UNL1       -0.0020
@<TRIPOS>BOND
     1     4     5    1
     2     5     6   ar
     3     6     3    1
     4     3     2    1
     5     2     1    1
     6     1    16    1
     7    16    17    1
     8    17    18    1
     9    18    19    1
    10    20    19    1
    11    20    21    1
    12    21    22    1
    13    22    24    1
    14    24    25   ar
    15    25    26   ar
    16    26    27   ar
    17    27    28    1
    18    27    29   ar
    19    29    30   ar
    20    20    23    1
    21     6     7   ar
    22     7     8   ar
    23     8     9   ar
    24     9    10    1
    25    10    11   ar
    26    11    12   ar
    27    12    13   ar
    28    13    14   ar
    29    14    15   ar
    30     9     5   ar
    31    15    10   ar
    32    23    17    1
    33    22    20    1
    34    30    24   ar
@<TRIPOS>MOLECULE
*****
 30 34 0 0 0
SMALL
GASTEIGER

@<TRIPOS>ATOM
      1 C         143.6634  142.6681  160.9698 C.3     1  UNL1        0.0294
      2 C         143.9117  141.2789  161.4783 C.3     1  UNL1        0.0666
      3 S         144.5033  141.0737  162.8413 S.3     1  UNL1       -0.0756
      4 C         144.3333  143.1732  165.3338 C.3     1  UNL1        0.1340
      5 N         143.5284  141.9165  165.1831 N.ar    1  UNL1       -0.2884
      6 C         143.6065  140.9514  164.0375 C.ar    1  UNL1        0.1932
      7 N         142.6303  139.8427  164.2979 N.ar    1  UNL1       -0.1221
      8 N         141.9489  140.1225  165.6046 N.ar    1  UNL1       -0.1282
      9 C         142.5039  141.4042  166.1517 C.ar    1  UNL1        0.1683
     10 C         142.1045  142.0586  167.4410 C.ar    1  UNL1        0.0551
     11 C         140.7283  142.6349  167.5948 C.ar    1  UNL1        0.0062
     12 C         140.3289  143.2893  168.8841 C.ar    1  UNL1        0.0208
     13 C         141.3060  143.3674  170.0196 C.ar    1  UNL1        0.0989
     14 N         142.6823  142.7911  169.8658 N.ar    1  UNL1       -0.2422
     15 C         143.0816  142.1366  168.5765 C.ar    1  UNL1        0.1019
     16 C         143.1628  143.7302  161.9032 C.3     1  UNL1        0.0730
     17 N         141.6879  143.9414  162.0771 N.3     1  UNL1       -0.2726
     18 C         140.9219  145.1721  161.6916 C.3     1  UNL1        0.0721
     19 C         139.4807  144.9501  162.0433 C.3     1  UNL1        0.0190
     20 C         139.3560  143.5823  162.6461 C.3     1  UNL1        0.0201
     21 C         137.8762  143.6492  162.8821 C.3     1  UNL1        0.0061
     22 C         138.6421  142.4185  163.2675 C.3     1  UNL1        0.0237
     23 C         140.7201  142.9588  162.6670 C.3     1  UNL1        0.0724
     24 C         138.6723  141.0361  163.8488 C.ar    1  UNL1       -0.0223
     25 C         138.9990  139.8618  162.9746 C.ar    1  UNL1       -0.0020
     26 C         139.0291  138.4793  163.5559 C.ar    1  UNL1        0.0293
     27 C         138.7325  138.2712  165.0114 C.ar    1  UNL1        0.1401
     28 F         138.7626  136.8888  165.5927 F       1  UNL1       -0.2042
     29 C         138.4058  139.4455  165.8857 C.ar    1  UNL1        0.0293
     30 C         138.3757  140.8279  165.3044 C.ar    1  UNL1       -0.0020
@<TRIPOS>BOND
     1     4     5    1
     2     5     6   ar
     3     6     3    1
     4     3     2    1
     5     2     1    1
     6     1    16    1
     7    16    17    1
     8    17    18    1
     9    18    19    1
    10    20    19    1
    11    20    21    1
    12    21    22    1
    13    22    24    1
    14    24    25   ar
    15    25    26   ar
    16    26    27   ar
    17    27    28    1
    18    27    29   ar
    19    29    30   ar
    20    20    23    1
    21     6     7   ar
    22     7     8   ar
    23     8     9   ar
    24     9    10    1
    25    10    11   ar
    26    11    12   ar
    27    12    13   ar
    28    13    14   ar
    29    14    15   ar
    30     9     5   ar
    31    15    10   ar
    32    23    17    1
    33    22    20    1
    34    30    24   ar
@<TRIPOS>MOLECULE
*****
 30 34 0 0 0
SMALL
GASTEIGER

@<TRIPOS>ATOM
      1 C         138.2423  138.5966  162.6353 C.3     1  UNL1        0.0294
      2 C         138.6181  138.1220  161.2629 C.3     1  UNL1        0.0666
      3 S         139.4373  138.9999  160.3639 S.3     1  UNL1       -0.0756
      4 C         139.6757  141.8010  162.0211 C.3     1  UNL1        0.1340
      5 N         140.8153  140.9058  161.6341 N.ar    1  UNL1       -0.2884
      6 C         140.7058  139.6183  160.8724 C.ar    1  UNL1        0.1932
      7 N         142.0874  139.0577  160.7084 N.ar    1  UNL1       -0.1221
      8 N         143.0508  139.9988  161.3688 N.ar    1  UNL1       -0.1282
      9 C         142.2647  141.1410  161.9410 C.ar    1  UNL1        0.1683
     10 C         142.8289  142.3127  162.6886 C.ar    1  UNL1        0.0551
     11 C         142.8870  142.2885  164.1873 C.ar    1  UNL1        0.0062
     12 C         143.4512  143.4602  164.9350 C.ar    1  UNL1        0.0208
     13 C         143.9572  144.6560  164.1838 C.ar    1  UNL1        0.0989
     14 N         143.8991  144.6801  162.6851 N.ar    1  UNL1       -0.2422
     15 C         143.3349  143.5084  161.9375 C.ar    1  UNL1        0.1019
     16 C         138.7255  137.8526  163.8448 C.3     1  UNL1        0.0730
     17 N         140.1059  138.1014  164.3765 N.3     1  UNL1       -0.2726
     18 C         141.3804  137.5429  163.8165 C.3     1  UNL1        0.0721
     19 C         142.5162  138.0488  164.6555 C.3     1  UNL1        0.0190
     20 C         141.9436  138.9200  165.7341 C.3     1  UNL1        0.0201
     21 C         143.2565  139.2586  166.3757 C.3     1  UNL1        0.0061
     22 C         141.9820  139.8171  166.9357 C.3     1  UNL1        0.0237
     23 C         140.4539  138.9525  165.5617 C.3     1  UNL1        0.0724
     24 C         141.2683  140.6574  167.9527 C.ar    1  UNL1       -0.0223
     25 C         141.3178  142.1536  167.8574 C.ar    1  UNL1       -0.0020
     26 C         140.6041  142.9939  168.8745 C.ar    1  UNL1        0.0293
     27 C         139.8409  142.3381  169.9868 C.ar    1  UNL1        0.1401
     28 F         139.1272  143.1785  171.0039 F       1  UNL1       -0.2042
     29 C         139.7913  140.8420  170.0821 C.ar    1  UNL1        0.0293
     30 C         140.5050  140.0016  169.0651 C.ar    1  UNL1       -0.0020
@<TRIPOS>BOND
     1     4     5    1
     2     5     6   ar
     3     6     3    1
     4     3     2    1
     5     2     1    1
     6     1    16    1
     7    16    17    1
     8    17    18    1
     9    18    19    1
    10    20    19    1
    11    20    21    1
    12    21    22    1
    13    22    24    1
    14    24    25   ar
    15    25    26   ar
    16    26    27   ar
    17    27    28    1
    18    27    29   ar
    19    29    30   ar
    20    20    23    1
    21     6     7   ar
    22     7     8   ar
    23     8     9   ar
    24     9    10    1
    25    10    11   ar
    26    11    12   ar
    27    12    13   ar
    28    13    14   ar
    29    14    15   ar
    30     9     5   ar
    31    15    10   ar
    32    23    17    1
    33    22    20    1
    34    30    24   ar
