@<TRIPOS>MOLECULE
*****
 22 23 0 0 0
SMALL
GASTEIGER

@<TRIPOS>ATOM
      1 C         138.3226  138.4284  162.6231 C.3     1  UNL1        0.0869
      2 O         139.9340  140.4621  162.4904 O.2     1  UNL1       -0.2751
      3 C         138.5590  139.9067  162.7166 C.2     1  UNL1        0.2229
      4 N         137.4206  140.8295  163.0363 N.am    1  UNL1       -0.2967
      5 H         136.5182  140.4649  163.1847 H       1  UNL1        0.1499
      6 C         137.6570  142.3078  163.1298 C.3     1  UNL1        0.1752
      7 C         137.6433  143.1250  164.3876 C.3     1  UNL1        0.0785
      8 C         137.9264  144.5508  164.0172 C.3     1  UNL1        0.2108
      9 O         138.1151  144.6147  162.5304 O.3     1  UNL1       -0.4473
     10 C         137.9485  143.2284  161.9821 C.2     1  UNL1        0.3351
     11 O         138.0549  142.8324  160.5392 O.2     1  UNL1       -0.2483
     12 C         139.0059  137.4975  163.5805 C.3     1  UNL1        0.0353
     13 C         138.7019  137.5747  165.0474 C.3     1  UNL1        0.1564
     14 S         139.1447  138.7663  165.8434 S.O2    1  UNL1        0.0087
     15 O         140.5682  138.4973  165.4544 O.2     1  UNL1       -0.1686
     16 O         137.7213  139.0354  166.2325 O.2     1  UNL1       -0.1686
     17 C         139.5877  139.9581  166.6395 C.ar    1  UNL1        0.1057
     18 C         140.1495  141.1603  165.9404 C.ar    1  UNL1        0.0183
     19 C         140.5924  142.3520  166.7364 C.ar    1  UNL1        0.0013
     20 C         140.4734  142.3414  168.2317 C.ar    1  UNL1        0.0001
     21 C         139.9115  141.1391  168.9308 C.ar    1  UNL1        0.0013
     22 C         139.4687  139.9475  168.1348 C.ar    1  UNL1        0.0183
@<TRIPOS>BOND
     1     2     3    2
     2     3     1    1
     3     1    12    1
     4    12    13    1
     5    13    14    1
     6    14    15    2
     7    14    16    2
     8    14    17    1
     9    17    18   ar
    10    18    19   ar
    11    19    20   ar
    12    20    21   ar
    13    21    22   ar
    14     3     4   am
    15     4     6    1
    16     6     7    1
    17     7     8    1
    18     8     9    1
    19     9    10    1
    20    10    11    2
    21    22    17   ar
    22    10     6    1
    23     4     5    1
@<TRIPOS>MOLECULE
*****
 22 23 0 0 0
SMALL
GASTEIGER

@<TRIPOS>ATOM
      1 C         142.7695  139.0970  166.9695 C.3     1  UNL1        0.0869
      2 O         143.1680  140.3812  169.1926 O.2     1  UNL1       -0.2751
      3 C         142.2821  140.0368  168.0321 C.2     1  UNL1        0.2229
      4 N         140.9088  140.6322  167.9343 N.am    1  UNL1       -0.2967
      5 H         140.3274  140.4061  167.1726 H       1  UNL1        0.1499
      6 C         140.4214  141.5720  168.9969 C.3     1  UNL1        0.1752
      7 C         140.7526  143.0311  169.1029 C.3     1  UNL1        0.0785
      8 C         140.0530  143.5787  170.3116 C.3     1  UNL1        0.2108
      9 O         139.2894  142.4579  170.9525 O.3     1  UNL1       -0.4473
     10 C         139.5171  141.2178  170.1400 C.2     1  UNL1        0.3351
     11 O         138.9415  139.8615  170.4213 O.2     1  UNL1       -0.2483
     12 C         141.9167  138.8162  165.7679 C.3     1  UNL1        0.0353
     13 C         141.9103  139.7730  164.6126 C.3     1  UNL1        0.1564
     14 S         140.9070  140.8870  164.5670 S.O2    1  UNL1        0.0087
     15 O         141.9603  141.8140  164.0367 O.2     1  UNL1       -0.1686
     16 O         139.8537  139.9601  165.0973 O.2     1  UNL1       -0.1686
     17 C         139.9036  142.0012  164.5213 C.ar    1  UNL1        0.1057
     18 C         140.0956  143.2189  165.3758 C.ar    1  UNL1        0.0183
     19 C         139.0923  144.3330  165.3301 C.ar    1  UNL1        0.0013
     20 C         137.8969  144.2293  164.4299 C.ar    1  UNL1        0.0001
     21 C         137.7049  143.0115  163.5754 C.ar    1  UNL1        0.0013
     22 C         138.7082  141.8975  163.6211 C.ar    1  UNL1        0.0183
@<TRIPOS>BOND
     1     2     3    2
     2     3     1    1
     3     1    12    1
     4    12    13    1
     5    13    14    1
     6    14    15    2
     7    14    16    2
     8    14    17    1
     9    17    18   ar
    10    18    19   ar
    11    19    20   ar
    12    20    21   ar
    13    21    22   ar
    14     3     4   am
    15     4     6    1
    16     6     7    1
    17     7     8    1
    18     8     9    1
    19     9    10    1
    20    10    11    2
    21    22    17   ar
    22    10     6    1
    23     4     5    1
@<TRIPOS>MOLECULE
*****
 22 23 0 0 0
SMALL
GASTEIGER

@<TRIPOS>ATOM
      1 C         138.9230  139.7411  167.5431 C.3     1  UNL1        0.0869
      2 O         140.4014  139.6198  169.6761 O.2     1  UNL1       -0.2751
      3 C         139.9664  140.3438  168.4364 C.2     1  UNL1        0.2229
      4 N         140.5748  141.6704  168.0901 N.am    1  UNL1       -0.2967
      5 H         140.2892  142.1456  167.2765 H       1  UNL1        0.1499
      6 C         141.6182  142.2731  168.9834 C.3     1  UNL1        0.1752
      7 C         143.0621  141.8719  169.0481 C.3     1  UNL1        0.0785
      8 C         143.7372  142.7337  170.0736 C.3     1  UNL1        0.2108
      9 O         142.7105  143.6675  170.6427 O.3     1  UNL1       -0.4473
     10 C         141.4009  143.3829  169.9690 C.2     1  UNL1        0.3351
     11 O         140.1021  144.0848  170.2342 O.2     1  UNL1       -0.2483
     12 C         139.3162  139.1565  166.2188 C.3     1  UNL1        0.0353
     13 C         139.7254  140.0587  165.0925 C.3     1  UNL1        0.1564
     14 S         141.1796  140.3022  164.8170 S.O2    1  UNL1        0.0087
     15 O         141.0124  141.7411  165.2064 O.2     1  UNL1       -0.1686
     16 O         141.3468  138.8634  164.4276 O.2     1  UNL1       -0.1686
     17 C         142.6339  140.5458  164.5415 C.ar    1  UNL1        0.1057
     18 C         143.1224  141.9371  164.2668 C.ar    1  UNL1        0.0183
     19 C         144.5766  142.1807  163.9913 C.ar    1  UNL1        0.0013
     20 C         145.5423  141.0328  163.9905 C.ar    1  UNL1        0.0001
     21 C         145.0537  139.6415  164.2651 C.ar    1  UNL1        0.0013
     22 C         143.5995  139.3980  164.5406 C.ar    1  UNL1        0.0183
@<TRIPOS>BOND
     1     2     3    2
     2     3     1    1
     3     1    12    1
     4    12    13    1
     5    13    14    1
     6    14    15    2
     7    14    16    2
     8    14    17    1
     9    17    18   ar
    10    18    19   ar
    11    19    20   ar
    12    20    21   ar
    13    21    22   ar
    14     3     4   am
    15     4     6    1
    16     6     7    1
    17     7     8    1
    18     8     9    1
    19     9    10    1
    20    10    11    2
    21    22    17   ar
    22    10     6    1
    23     4     5    1
@<TRIPOS>MOLECULE
*****
 22 23 0 0 0
SMALL
GASTEIGER

@<TRIPOS>ATOM
      1 C         141.4110  138.0922  164.9227 C.3     1  UNL1        0.0869
      2 O         143.6885  138.7592  165.9803 O.2     1  UNL1       -0.2751
      3 C         142.1906  138.8382  165.9647 C.2     1  UNL1        0.2229
      4 N         141.4724  139.6632  166.9911 N.am    1  UNL1       -0.2967
      5 H         140.4893  139.7151  166.9808 H       1  UNL1        0.1499
      6 C         142.2519  140.4092  168.0330 C.3     1  UNL1        0.1752
      7 C         142.5636  141.8764  168.0187 C.3     1  UNL1        0.0785
      8 C         143.3610  142.1930  169.2491 C.3     1  UNL1        0.2108
      9 O         143.5421  140.9215  170.0239 O.3     1  UNL1       -0.4473
     10 C         142.8567  139.8191  169.2724 C.2     1  UNL1        0.3351
     11 O         142.7881  138.3792  169.6873 O.2     1  UNL1       -0.2483
     12 C         139.9308  137.9087  165.0819 C.3     1  UNL1        0.0353
     13 C         138.9807  138.7350  164.2667 C.3     1  UNL1        0.1564
     14 S         138.9016  140.2174  164.4814 S.O2    1  UNL1        0.0087
     15 O         139.2960  140.4454  163.0523 O.2     1  UNL1       -0.1686
     16 O         138.5072  139.9893  165.9105 O.2     1  UNL1       -0.1686
     17 C         138.8225  141.6999  164.6961 C.ar    1  UNL1        0.1057
     18 C         139.9038  142.4060  165.4590 C.ar    1  UNL1        0.0183
     19 C         139.8247  143.8884  165.6737 C.ar    1  UNL1        0.0013
     20 C         138.6642  144.6647  165.1254 C.ar    1  UNL1        0.0001
     21 C         137.5829  143.9586  164.3624 C.ar    1  UNL1        0.0013
     22 C         137.6620  142.4762  164.1478 C.ar    1  UNL1        0.0183
@<TRIPOS>BOND
     1     2     3    2
     2     3     1    1
     3     1    12    1
     4    12    13    1
     5    13    14    1
     6    14    15    2
     7    14    16    2
     8    14    17    1
     9    17    18   ar
    10    18    19   ar
    11    19    20   ar
    12    20    21   ar
    13    21    22   ar
    14     3     4   am
    15     4     6    1
    16     6     7    1
    17     7     8    1
    18     8     9    1
    19     9    10    1
    20    10    11    2
    21    22    17   ar
    22    10     6    1
    23     4     5    1
@<TRIPOS>MOLECULE
*****
 22 23 0 0 0
SMALL
GASTEIGER

@<TRIPOS>ATOM
      1 C         143.2749  138.7109  166.7383 C.3     1  UNL1        0.0869
      2 O         142.8711  139.0976  169.2755 O.2     1  UNL1       -0.2751
      3 C         142.5677  139.4346  167.8456 C.2     1  UNL1        0.2229
      4 N         141.5573  140.4952  167.5231 N.am    1  UNL1       -0.2967
      5 H         141.3583  140.7164  166.5847 H       1  UNL1        0.1499
      6 C         140.8502  141.2189  168.6305 C.3     1  UNL1        0.1752
      7 C         141.2773  142.5168  169.2493 C.3     1  UNL1        0.0785
      8 C         140.2829  142.8719  170.3147 C.3     1  UNL1        0.2108
      9 O         139.2411  141.7934  170.3543 O.3     1  UNL1       -0.4473
     10 C         139.5918  140.7718  169.3134 C.2     1  UNL1        0.3351
     11 O         138.8195  139.5225  169.0089 O.2     1  UNL1       -0.2483
     12 C         142.5319  138.3435  165.4880 C.3     1  UNL1        0.0353
     13 C         142.8660  139.0193  164.1912 C.3     1  UNL1        0.1564
     14 S         143.0621  140.5058  164.1488 S.O2    1  UNL1        0.0087
     15 O         141.6035  140.7064  164.4354 O.2     1  UNL1       -0.1686
     16 O         144.5207  140.3052  163.8622 O.2     1  UNL1       -0.1686
     17 C         143.2581  141.9923  164.1064 C.ar    1  UNL1        0.1057
     18 C         142.5443  142.8138  163.0741 C.ar    1  UNL1        0.0183
     19 C         142.7404  144.3003  163.0318 C.ar    1  UNL1        0.0013
     20 C         143.6503  144.9653  164.0217 C.ar    1  UNL1        0.0001
     21 C         144.3641  144.1438  165.0539 C.ar    1  UNL1        0.0013
     22 C         144.1680  142.6573  165.0963 C.ar    1  UNL1        0.0183
@<TRIPOS>BOND
     1     2     3    2
     2     3     1    1
     3     1    12    1
     4    12    13    1
     5    13    14    1
     6    14    15    2
     7    14    16    2
     8    14    17    1
     9    17    18   ar
    10    18    19   ar
    11    19    20   ar
    12    20    21   ar
    13    21    22   ar
    14     3     4   am
    15     4     6    1
    16     6     7    1
    17     7     8    1
    18     8     9    1
    19     9    10    1
    20    10    11    2
    21    22    17   ar
    22    10     6    1
    23     4     5    1
@<TRIPOS>MOLECULE
*****
 22 23 0 0 0
SMALL
GASTEIGER

@<TRIPOS>ATOM
      1 C         143.2884  138.7304  166.5150 C.3     1  UNL1        0.0869
      2 O         142.8496  139.0352  169.0575 O.2     1  UNL1       -0.2751
      3 C         142.8028  139.5721  167.6576 C.2     1  UNL1        0.2229
      4 N         142.2702  140.9506  167.4005 N.am    1  UNL1       -0.2967
      5 H         142.2395  141.3029  166.4817 H       1  UNL1        0.1499
      6 C         141.7845  141.7923  168.5431 C.3     1  UNL1        0.1752
      7 C         140.3558  141.9651  168.9660 C.3     1  UNL1        0.0785
      8 C         140.3305  142.8885  170.1478 C.3     1  UNL1        0.2108
      9 O         141.7437  143.2864  170.4553 O.3     1  UNL1       -0.4473
     10 C         142.6423  142.6089  169.4636 C.2     1  UNL1        0.3351
     11 O         144.1364  142.7273  169.4030 O.2     1  UNL1       -0.2483
     12 C         142.3910  138.4687  165.3418 C.3     1  UNL1        0.0353
     13 C         142.7202  139.0538  164.0005 C.3     1  UNL1        0.1564
     14 S         142.9697  140.5268  163.8656 S.O2    1  UNL1        0.0087
     15 O         144.3483  140.2457  163.3459 O.2     1  UNL1       -0.1686
     16 O         141.5910  140.8079  164.3853 O.2     1  UNL1       -0.1686
     17 C         143.2192  141.9997  163.7307 C.ar    1  UNL1        0.1057
     18 C         143.9187  142.7456  164.8281 C.ar    1  UNL1        0.0183
     19 C         144.1682  144.2185  164.6931 C.ar    1  UNL1        0.0013
     20 C         143.7182  144.9456  163.4607 C.ar    1  UNL1        0.0001
     21 C         143.0187  144.1997  162.3633 C.ar    1  UNL1        0.0013
     22 C         142.7692  142.7268  162.4982 C.ar    1  UNL1        0.0183
@<TRIPOS>BOND
     1     2     3    2
     2     3     1    1
     3     1    12    1
     4    12    13    1
     5    13    14    1
     6    14    15    2
     7    14    16    2
     8    14    17    1
     9    17    18   ar
    10    18    19   ar
    11    19    20   ar
    12    20    21   ar
    13    21    22   ar
    14     3     4   am
    15     4     6    1
    16     6     7    1
    17     7     8    1
    18     8     9    1
    19     9    10    1
    20    10    11    2
    21    22    17   ar
    22    10     6    1
    23     4     5    1
@<TRIPOS>MOLECULE
*****
 22 23 0 0 0
SMALL
GASTEIGER

@<TRIPOS>ATOM
      1 C         141.3148  138.3001  164.7318 C.3     1  UNL1        0.0869
      2 O         143.5388  138.6440  166.0302 O.2     1  UNL1       -0.2751
      3 C         142.0525  138.8205  165.9297 C.2     1  UNL1        0.2229
      4 N         141.3042  139.5176  167.0269 N.am    1  UNL1       -0.2967
      5 H         140.3287  139.6334  166.9610 H       1  UNL1        0.1499
      6 C         142.0419  140.0380  168.2248 C.3     1  UNL1        0.1752
      7 C         142.1190  139.3766  169.5688 C.3     1  UNL1        0.0785
      8 C         142.9569  140.2411  170.4636 C.3     1  UNL1        0.2108
      9 O         143.3976  141.4369  169.6725 O.3     1  UNL1       -0.4473
     10 C         142.8322  141.3114  168.2889 C.2     1  UNL1        0.3351
     11 O         143.0234  142.2878  167.1664 O.2     1  UNL1       -0.2483
     12 C         139.8817  137.8757  164.8597 C.3     1  UNL1        0.0353
     13 C         138.7960  138.7037  164.2388 C.3     1  UNL1        0.1564
     14 S         138.7621  140.1864  164.4636 S.O2    1  UNL1        0.0087
     15 O         138.4756  139.9592  165.9183 O.2     1  UNL1       -0.1686
     16 O         139.0486  140.4135  163.0089 O.2     1  UNL1       -0.1686
     17 C         138.7282  141.6691  164.6885 C.ar    1  UNL1        0.1057
     18 C         137.6789  142.5055  164.0181 C.ar    1  UNL1        0.0183
     19 C         137.6450  143.9881  164.2430 C.ar    1  UNL1        0.0013
     20 C         138.6604  144.6343  165.1382 C.ar    1  UNL1        0.0001
     21 C         139.7096  143.7979  165.8086 C.ar    1  UNL1        0.0013
     22 C         139.7435  142.3153  165.5838 C.ar    1  UNL1        0.0183
@<TRIPOS>BOND
     1     2     3    2
     2     3     1    1
     3     1    12    1
     4    12    13    1
     5    13    14    1
     6    14    15    2
     7    14    16    2
     8    14    17    1
     9    17    18   ar
    10    18    19   ar
    11    19    20   ar
    12    20    21   ar
    13    21    22   ar
    14     3     4   am
    15     4     6    1
    16     6     7    1
    17     7     8    1
    18     8     9    1
    19     9    10    1
    20    10    11    2
    21    22    17   ar
    22    10     6    1
    23     4     5    1
@<TRIPOS>MOLECULE
*****
 22 23 0 0 0
SMALL
GASTEIGER

@<TRIPOS>ATOM
      1 C         143.8355  144.1031  164.0361 C.3     1  UNL1        0.0869
      2 O         142.2530  143.5050  162.0643 O.2     1  UNL1       -0.2751
      3 C         142.4529  144.0137  163.4612 C.2     1  UNL1        0.2229
      4 N         141.2703  144.4329  164.2831 N.am    1  UNL1       -0.2967
      5 H         141.4016  144.7668  165.2000 H       1  UNL1        0.1499
      6 C         139.8878  144.3435  163.7082 C.3     1  UNL1        0.1752
      7 C         138.8429  143.3328  164.0778 C.3     1  UNL1        0.0785
      8 C         137.6166  143.6137  163.2608 C.3     1  UNL1        0.2108
      9 O         137.9037  144.7981  162.3862 O.3     1  UNL1       -0.4473
     10 C         139.3073  145.2491  162.6628 C.2     1  UNL1        0.3351
     11 O         140.0076  146.4031  162.0086 O.2     1  UNL1       -0.2483
     12 C         144.1008  143.6176  165.4304 C.3     1  UNL1        0.0353
     13 C         143.6546  142.2467  165.8448 C.3     1  UNL1        0.1564
     14 S         142.6045  142.0881  166.9040 S.O2    1  UNL1        0.0087
     15 O         143.5691  142.5927  167.9359 O.2     1  UNL1       -0.1686
     16 O         141.6399  141.5835  165.8721 O.2     1  UNL1       -0.1686
     17 C         141.5543  141.9294  167.9633 C.ar    1  UNL1        0.1057
     18 C         141.3895  142.9817  169.0195 C.ar    1  UNL1        0.0183
     19 C         140.3393  142.8230  170.0787 C.ar    1  UNL1        0.0013
     20 C         139.4541  141.6121  170.0818 C.ar    1  UNL1        0.0001
     21 C         139.6190  140.5598  169.0256 C.ar    1  UNL1        0.0013
     22 C         140.6691  140.7185  167.9664 C.ar    1  UNL1        0.0183
@<TRIPOS>BOND
     1     2     3    2
     2     3     1    1
     3     1    12    1
     4    12    13    1
     5    13    14    1
     6    14    15    2
     7    14    16    2
     8    14    17    1
     9    17    18   ar
    10    18    19   ar
    11    19    20   ar
    12    20    21   ar
    13    21    22   ar
    14     3     4   am
    15     4     6    1
    16     6     7    1
    17     7     8    1
    18     8     9    1
    19     9    10    1
    20    10    11    2
    21    22    17   ar
    22    10     6    1
    23     4     5    1
@<TRIPOS>MOLECULE
*****
 22 23 0 0 0
SMALL
GASTEIGER

@<TRIPOS>ATOM
      1 C         142.9553  139.0058  166.3299 C.3     1  UNL1        0.0869
      2 O         142.9590  139.0484  168.9276 O.2     1  UNL1       -0.2751
      3 C         142.6147  139.6943  167.6182 C.2     1  UNL1        0.2229
      4 N         141.9299  141.0287  167.5973 N.am    1  UNL1       -0.2967
      5 H         141.7040  141.4526  166.7379 H       1  UNL1        0.1499
      6 C         141.5893  141.7172  168.8857 C.3     1  UNL1        0.1752
      7 C         140.2411  141.7418  169.5426 C.3     1  UNL1        0.0785
      8 C         140.3557  142.5419  170.8063 C.3     1  UNL1        0.2108
      9 O         141.7748  143.0118  170.9303 O.3     1  UNL1       -0.4473
     10 C         142.5372  142.5021  169.7433 C.2     1  UNL1        0.3351
     11 O         143.9921  142.7362  169.4631 O.2     1  UNL1       -0.2483
     12 C         143.1857  139.8125  165.0864 C.3     1  UNL1        0.0353
     13 C         142.1055  139.9198  164.0512 C.3     1  UNL1        0.1564
     14 S         141.0541  140.9828  164.1717 S.O2    1  UNL1        0.0087
     15 O         142.0778  141.9335  164.7176 O.2     1  UNL1       -0.1686
     16 O         140.0303  140.0321  163.6257 O.2     1  UNL1       -0.1686
     17 C         140.0026  142.0459  164.2922 C.ar    1  UNL1        0.1057
     18 C         138.7297  141.9342  163.5067 C.ar    1  UNL1        0.0183
     19 C         137.6784  142.9972  163.6272 C.ar    1  UNL1        0.0013
     20 C         137.9000  144.1719  164.5333 C.ar    1  UNL1        0.0001
     21 C         139.1729  144.2836  165.3188 C.ar    1  UNL1        0.0013
     22 C         140.2242  143.2206  165.1983 C.ar    1  UNL1        0.0183
@<TRIPOS>BOND
     1     2     3    2
     2     3     1    1
     3     1    12    1
     4    12    13    1
     5    13    14    1
     6    14    15    2
     7    14    16    2
     8    14    17    1
     9    17    18   ar
    10    18    19   ar
    11    19    20   ar
    12    20    21   ar
    13    21    22   ar
    14     3     4   am
    15     4     6    1
    16     6     7    1
    17     7     8    1
    18     8     9    1
    19     9    10    1
    20    10    11    2
    21    22    17   ar
    22    10     6    1
    23     4     5    1
