@<TRIPOS>MOLECULE
*****
 30 34 0 0 0
SMALL
GASTEIGER

@<TRIPOS>ATOM
      1 C         140.3366  137.8245  156.2425 C.ar    1  UNL1        0.0878
      2 C         139.3318  138.7307  155.5950 C.ar    1  UNL1        0.0091
      3 C         138.7929  138.4023  154.2343 C.ar    1  UNL1        0.0194
      4 C         139.2586  137.1677  153.5210 C.ar    1  UNL1        0.0844
      5 N         140.2634  136.2615  154.1684 N.ar    1  UNL1       -0.2576
      6 C         140.7292  135.0268  153.4552 C.ar    1  UNL1        0.2672
      7 O         140.1902  134.6984  152.0944 O.2     1  UNL1       -0.2665
      8 C         141.7340  134.1206  154.1027 C.ar    1  UNL1        0.0742
      9 C         142.1997  132.8860  153.3894 C.ar    1  UNL1        0.0063
     10 C         143.2045  131.9798  154.0369 C.ar    1  UNL1        0.0003
     11 C         143.7435  132.3082  155.3976 C.ar    1  UNL1        0.0015
     12 C         144.7482  131.4020  156.0451 C.ar    1  UNL1        0.0000
     13 C         145.2872  131.7304  157.4058 C.ar    1  UNL1        0.0000
     14 C         144.8214  132.9650  158.1191 C.ar    1  UNL1        0.0000
     15 C         143.8167  133.8712  157.4716 C.ar    1  UNL1        0.0015
     16 C         143.2777  133.5428  156.1109 C.ar    1  UNL1        0.0179
     17 C         142.2729  134.4490  155.4634 C.ar    1  UNL1        0.0875
     18 N         141.8072  135.6837  156.1767 N.ar    1  UNL1       -0.2276
     19 C         140.8024  136.5899  155.5292 C.ar    1  UNL1        0.1543
     20 N         142.3544  138.2967  157.8095 N.am    1  UNL1       -0.3023
     21 C         140.8756  138.1529  157.6032 C.2     1  UNL1        0.2487
     22 O         139.9358  138.3376  158.7577 O.2     1  UNL1       -0.2700
     23 H         142.9712  138.1755  157.0519 H       1  UNL1        0.1497
     24 C         144.5101  139.6103  163.2527 C.3     1  UNL1        0.0896
     25 N         143.9712  139.2819  161.8919 N.3     1  UNL1       -0.2714
     26 C         143.8334  140.3611  160.8593 C.3     1  UNL1        0.0738
     27 C         143.2945  140.0327  159.4985 C.3     1  UNL1        0.0369
     28 C         142.8933  138.6251  159.1704 C.3     1  UNL1        0.0746
     29 C         143.0312  137.5459  160.2030 C.3     1  UNL1        0.0369
     30 C         143.5701  137.8743  161.5637 C.3     1  UNL1        0.0738
@<TRIPOS>BOND
     1    24    25    1
     2    25    26    1
     3    26    27    1
     4    27    28    1
     5    28    20    1
     6    20    21   am
     7    21    22    2
     8    21     1    1
     9     1     2   ar
    10     2     3   ar
    11     3     4   ar
    12     4     5   ar
    13     5     6   ar
    14     6     7    2
    15     6     8   ar
    16     8     9   ar
    17     9    10   ar
    18    10    11   ar
    19    11    12   ar
    20    12    13   ar
    21    13    14   ar
    22    14    15   ar
    23    15    16   ar
    24    16    17   ar
    25    17    18   ar
    26    18    19   ar
    27    28    29    1
    28    29    30    1
    29    30    25    1
    30    19     1   ar
    31    19     5   ar
    32    17     8   ar
    33    16    11   ar
    34    20    23    1
@<TRIPOS>MOLECULE
*****
 30 34 0 0 0
SMALL
GASTEIGER

@<TRIPOS>ATOM
      1 C         138.6115  140.7149  161.0838 C.ar    1  UNL1        0.0878
      2 C         137.6416  139.6285  160.7243 C.ar    1  UNL1        0.0091
      3 C         137.5845  138.3730  161.5431 C.ar    1  UNL1        0.0194
      4 C         138.4971  138.2039  162.7214 C.ar    1  UNL1        0.0844
      5 N         139.4669  139.2903  163.0810 N.ar    1  UNL1       -0.2576
      6 C         140.3795  139.1212  164.2593 C.ar    1  UNL1        0.2672
      7 O         140.3223  137.8657  165.0782 O.2     1  UNL1       -0.2665
      8 C         141.3493  140.2076  164.6189 C.ar    1  UNL1        0.0742
      9 C         142.2619  140.0385  165.7972 C.ar    1  UNL1        0.0063
     10 C         143.2317  141.1248  166.1568 C.ar    1  UNL1        0.0003
     11 C         143.2889  142.3804  165.3379 C.ar    1  UNL1        0.0015
     12 C         144.2587  143.4667  165.6975 C.ar    1  UNL1        0.0000
     13 C         144.3159  144.7222  164.8787 C.ar    1  UNL1        0.0000
     14 C         143.4033  144.8913  163.7003 C.ar    1  UNL1        0.0000
     15 C         142.4335  143.8049  163.3408 C.ar    1  UNL1        0.0015
     16 C         142.3763  142.5495  164.1596 C.ar    1  UNL1        0.0179
     17 C         141.4065  141.4631  163.8001 C.ar    1  UNL1        0.0875
     18 N         140.4939  141.6322  162.6217 N.ar    1  UNL1       -0.2276
     19 C         139.5241  140.5458  162.2622 C.ar    1  UNL1        0.1543
     20 N         139.4774  142.0061  159.0022 N.am    1  UNL1       -0.3023
     21 C         138.6686  141.9704  160.2650 C.2     1  UNL1        0.2487
     22 O         137.9170  143.1903  160.7089 O.2     1  UNL1       -0.2700
     23 H         139.9708  141.2055  158.7108 H       1  UNL1        0.1497
     24 C         139.7060  147.0282  155.7271 C.3     1  UNL1        0.0896
     25 N         139.6489  145.7727  156.5459 N.3     1  UNL1       -0.2714
     26 C         138.9150  144.5717  156.0271 C.3     1  UNL1        0.0738
     27 C         138.8579  143.3162  156.8459 C.3     1  UNL1        0.0369
     28 C         139.5346  143.2616  158.1834 C.3     1  UNL1        0.0746
     29 C         140.2684  144.4626  158.7022 C.3     1  UNL1        0.0369
     30 C         140.3256  145.7181  157.8835 C.3     1  UNL1        0.0738
@<TRIPOS>BOND
     1    24    25    1
     2    25    26    1
     3    26    27    1
     4    27    28    1
     5    28    20    1
     6    20    21   am
     7    21    22    2
     8    21     1    1
     9     1     2   ar
    10     2     3   ar
    11     3     4   ar
    12     4     5   ar
    13     5     6   ar
    14     6     7    2
    15     6     8   ar
    16     8     9   ar
    17     9    10   ar
    18    10    11   ar
    19    11    12   ar
    20    12    13   ar
    21    13    14   ar
    22    14    15   ar
    23    15    16   ar
    24    16    17   ar
    25    17    18   ar
    26    18    19   ar
    27    28    29    1
    28    29    30    1
    29    30    25    1
    30    19     1   ar
    31    19     5   ar
    32    17     8   ar
    33    16    11   ar
    34    20    23    1
@<TRIPOS>MOLECULE
*****
 30 34 0 0 0
SMALL
GASTEIGER

@<TRIPOS>ATOM
      1 C         142.3535  144.3428  162.7066 C.ar    1  UNL1        0.0878
      2 C         143.3678  145.2718  163.3052 C.ar    1  UNL1        0.0091
      3 C         144.0814  144.8900  164.5681 C.ar    1  UNL1        0.0194
      4 C         143.7807  143.5792  165.2325 C.ar    1  UNL1        0.0844
      5 N         142.7665  142.6502  164.6340 N.ar    1  UNL1       -0.2576
      6 C         142.4659  141.3394  165.2984 C.ar    1  UNL1        0.2672
      7 O         143.1794  140.9576  166.5613 O.2     1  UNL1       -0.2665
      8 C         141.4516  140.4104  164.6998 C.ar    1  UNL1        0.0742
      9 C         141.1509  139.0996  165.3642 C.ar    1  UNL1        0.0063
     10 C         140.1367  138.1706  164.7657 C.ar    1  UNL1        0.0003
     11 C         139.4231  138.5524  163.5027 C.ar    1  UNL1        0.0015
     12 C         138.4088  137.6234  162.9042 C.ar    1  UNL1        0.0000
     13 C         137.6953  138.0052  161.6413 C.ar    1  UNL1        0.0000
     14 C         137.9959  139.3160  160.9769 C.ar    1  UNL1        0.0000
     15 C         139.0101  140.2450  161.5754 C.ar    1  UNL1        0.0015
     16 C         139.7237  139.8632  162.8383 C.ar    1  UNL1        0.0179
     17 C         140.7380  140.7922  163.4369 C.ar    1  UNL1        0.0875
     18 N         141.0386  142.1030  162.7725 N.ar    1  UNL1       -0.2276
     19 C         142.0528  143.0320  163.3710 C.ar    1  UNL1        0.1543
     20 N         142.0294  144.0908  160.1412 N.am    1  UNL1       -0.3023
     21 C         141.6399  144.7246  161.4437 C.2     1  UNL1        0.2487
     22 O         140.5368  145.7403  161.4833 O.2     1  UNL1       -0.2700
     23 H         142.7534  143.4241  160.1152 H       1  UNL1        0.1497
     24 C         139.1748  145.6180  155.0896 C.3     1  UNL1        0.0896
     25 N         139.8885  145.2362  156.3525 N.3     1  UNL1       -0.2714
     26 C         141.0227  146.0782  156.8570 C.3     1  UNL1        0.0738
     27 C         141.7363  145.6964  158.1198 C.3     1  UNL1        0.0369
     28 C         141.3157  144.4726  158.8783 C.3     1  UNL1        0.0746
     29 C         140.1815  143.6306  158.3738 C.3     1  UNL1        0.0369
     30 C         139.4679  144.0123  157.1110 C.3     1  UNL1        0.0738
@<TRIPOS>BOND
     1    24    25    1
     2    25    26    1
     3    26    27    1
     4    27    28    1
     5    28    20    1
     6    20    21   am
     7    21    22    2
     8    21     1    1
     9     1     2   ar
    10     2     3   ar
    11     3     4   ar
    12     4     5   ar
    13     5     6   ar
    14     6     7    2
    15     6     8   ar
    16     8     9   ar
    17     9    10   ar
    18    10    11   ar
    19    11    12   ar
    20    12    13   ar
    21    13    14   ar
    22    14    15   ar
    23    15    16   ar
    24    16    17   ar
    25    17    18   ar
    26    18    19   ar
    27    28    29    1
    28    29    30    1
    29    30    25    1
    30    19     1   ar
    31    19     5   ar
    32    17     8   ar
    33    16    11   ar
    34    20    23    1
@<TRIPOS>MOLECULE
*****
 30 34 0 0 0
SMALL
GASTEIGER

@<TRIPOS>ATOM
      1 C         141.2716  144.2179  161.2051 C.ar    1  UNL1        0.0878
      2 C         140.5420  145.4232  160.6902 C.ar    1  UNL1        0.0091
      3 C         139.5851  146.1580  161.5814 C.ar    1  UNL1        0.0194
      4 C         139.3576  145.6875  162.9875 C.ar    1  UNL1        0.0844
      5 N         140.0872  144.4823  163.5023 N.ar    1  UNL1       -0.2576
      6 C         139.8597  144.0118  164.9084 C.ar    1  UNL1        0.2672
      7 O         138.9028  144.7466  165.7996 O.2     1  UNL1       -0.2665
      8 C         140.5893  142.8065  165.4232 C.ar    1  UNL1        0.0742
      9 C         140.3619  142.3360  166.8292 C.ar    1  UNL1        0.0063
     10 C         141.0914  141.1307  167.3441 C.ar    1  UNL1        0.0003
     11 C         142.0484  140.3959  166.4528 C.ar    1  UNL1        0.0015
     12 C         142.7779  139.1906  166.9677 C.ar    1  UNL1        0.0000
     13 C         143.7348  138.4558  166.0765 C.ar    1  UNL1        0.0000
     14 C         143.9622  138.9262  164.6704 C.ar    1  UNL1        0.0000
     15 C         143.2327  140.1315  164.1556 C.ar    1  UNL1        0.0015
     16 C         142.2758  140.8663  165.0468 C.ar    1  UNL1        0.0179
     17 C         141.5462  142.0717  164.5320 C.ar    1  UNL1        0.0875
     18 N         141.7737  142.5421  163.1259 N.ar    1  UNL1       -0.2276
     19 C         141.0441  143.7474  162.6111 C.ar    1  UNL1        0.1543
     20 N         141.7269  142.7998  159.0763 N.am    1  UNL1       -0.3023
     21 C         142.2285  143.4830  160.3139 C.2     1  UNL1        0.2487
     22 O         143.6871  143.4315  160.6602 O.2     1  UNL1       -0.2700
     23 H         140.7696  142.8336  158.8490 H       1  UNL1        0.1497
     24 C         145.5549  139.8606  155.5115 C.3     1  UNL1        0.0896
     25 N         144.5979  140.5954  156.4027 N.3     1  UNL1       -0.2714
     26 C         143.6696  139.8305  157.2989 C.3     1  UNL1        0.0738
     27 C         142.7126  140.5653  158.1901 C.3     1  UNL1        0.0369
     28 C         142.6839  142.0649  158.1851 C.3     1  UNL1        0.0746
     29 C         143.6122  142.8299  157.2889 C.3     1  UNL1        0.0369
     30 C         144.5692  142.0951  156.3977 C.3     1  UNL1        0.0738
@<TRIPOS>BOND
     1    24    25    1
     2    25    26    1
     3    26    27    1
     4    27    28    1
     5    28    20    1
     6    20    21   am
     7    21    22    2
     8    21     1    1
     9     1     2   ar
    10     2     3   ar
    11     3     4   ar
    12     4     5   ar
    13     5     6   ar
    14     6     7    2
    15     6     8   ar
    16     8     9   ar
    17     9    10   ar
    18    10    11   ar
    19    11    12   ar
    20    12    13   ar
    21    13    14   ar
    22    14    15   ar
    23    15    16   ar
    24    16    17   ar
    25    17    18   ar
    26    18    19   ar
    27    28    29    1
    28    29    30    1
    29    30    25    1
    30    19     1   ar
    31    19     5   ar
    32    17     8   ar
    33    16    11   ar
    34    20    23    1
@<TRIPOS>MOLECULE
*****
 30 34 0 0 0
SMALL
GASTEIGER

@<TRIPOS>ATOM
      1 C         140.7150  143.9903  160.4616 C.ar    1  UNL1        0.0878
      2 C         140.4457  145.4517  160.2572 C.ar    1  UNL1        0.0091
      3 C         139.7796  146.2500  161.3383 C.ar    1  UNL1        0.0194
      4 C         139.3828  145.5870  162.6240 C.ar    1  UNL1        0.0844
      5 N         139.6522  144.1256  162.8285 N.ar    1  UNL1       -0.2576
      6 C         139.2554  143.4626  164.1142 C.ar    1  UNL1        0.2672
      7 O         138.5893  144.2609  165.1954 O.2     1  UNL1       -0.2665
      8 C         139.5248  142.0012  164.3187 C.ar    1  UNL1        0.0742
      9 C         139.1280  141.3382  165.6044 C.ar    1  UNL1        0.0063
     10 C         139.3974  139.8768  165.8089 C.ar    1  UNL1        0.0003
     11 C         140.0635  139.0784  164.7277 C.ar    1  UNL1        0.0015
     12 C         140.3328  137.6171  164.9322 C.ar    1  UNL1        0.0000
     13 C         140.9989  136.8187  163.8511 C.ar    1  UNL1        0.0000
     14 C         141.3956  137.4818  162.5654 C.ar    1  UNL1        0.0000
     15 C         141.1263  138.9431  162.3608 C.ar    1  UNL1        0.0015
     16 C         140.4602  139.7414  163.4420 C.ar    1  UNL1        0.0179
     17 C         140.1909  141.2029  163.2375 C.ar    1  UNL1        0.0875
     18 N         140.5876  141.8659  161.9518 N.ar    1  UNL1       -0.2276
     19 C         140.3183  143.3272  161.7473 C.ar    1  UNL1        0.1543
     20 N         142.5749  142.3428  159.7024 N.am    1  UNL1       -0.3023
     21 C         141.3811  143.1919  159.3805 C.2     1  UNL1        0.2487
     22 O         140.8533  143.2428  157.9772 O.2     1  UNL1       -0.2700
     23 H         142.9213  142.3094  160.6234 H       1  UNL1        0.1497
     24 C         145.2391  139.1494  155.3775 C.3     1  UNL1        0.0896
     25 N         144.5730  139.9478  156.4588 N.3     1  UNL1       -0.2714
     26 C         145.1768  141.2429  156.9149 C.3     1  UNL1        0.0738
     27 C         144.5108  142.0413  157.9961 C.3     1  UNL1        0.0369
     28 C         143.2410  141.5444  158.6212 C.3     1  UNL1        0.0746
     29 C         142.6373  140.2493  158.1651 C.3     1  UNL1        0.0369
     30 C         143.3033  139.4509  157.0839 C.3     1  UNL1        0.0738
@<TRIPOS>BOND
     1    24    25    1
     2    25    26    1
     3    26    27    1
     4    27    28    1
     5    28    20    1
     6    20    21   am
     7    21    22    2
     8    21     1    1
     9     1     2   ar
    10     2     3   ar
    11     3     4   ar
    12     4     5   ar
    13     5     6   ar
    14     6     7    2
    15     6     8   ar
    16     8     9   ar
    17     9    10   ar
    18    10    11   ar
    19    11    12   ar
    20    12    13   ar
    21    13    14   ar
    22    14    15   ar
    23    15    16   ar
    24    16    17   ar
    25    17    18   ar
    26    18    19   ar
    27    28    29    1
    28    29    30    1
    29    30    25    1
    30    19     1   ar
    31    19     5   ar
    32    17     8   ar
    33    16    11   ar
    34    20    23    1
@<TRIPOS>MOLECULE
*****
 30 34 0 0 0
SMALL
GASTEIGER

@<TRIPOS>ATOM
      1 C         141.6554  142.9518  159.0025 C.ar    1  UNL1        0.0878
      2 C         141.8418  144.2574  158.2878 C.ar    1  UNL1        0.0091
      3 C         141.1783  145.4982  158.8074 C.ar    1  UNL1        0.0194
      4 C         140.3284  145.4336  160.0417 C.ar    1  UNL1        0.0844
      5 N         140.1420  144.1280  160.7564 N.ar    1  UNL1       -0.2576
      6 C         139.2921  144.0634  161.9907 C.ar    1  UNL1        0.2672
      7 O         138.6286  145.3042  162.5103 O.2     1  UNL1       -0.2665
      8 C         139.1057  142.7577  162.7054 C.ar    1  UNL1        0.0742
      9 C         138.2558  142.6931  163.9397 C.ar    1  UNL1        0.0063
     10 C         138.0694  141.3875  164.6544 C.ar    1  UNL1        0.0003
     11 C         138.7329  140.1466  164.1348 C.ar    1  UNL1        0.0015
     12 C         138.5465  138.8411  164.8495 C.ar    1  UNL1        0.0000
     13 C         139.2100  137.6003  164.3299 C.ar    1  UNL1        0.0000
     14 C         140.0600  137.6649  163.0956 C.ar    1  UNL1        0.0000
     15 C         140.2463  138.9705  162.3809 C.ar    1  UNL1        0.0015
     16 C         139.5828  140.2113  162.9005 C.ar    1  UNL1        0.0179
     17 C         139.7692  141.5169  162.1858 C.ar    1  UNL1        0.0875
     18 N         140.6191  141.5816  160.9515 N.ar    1  UNL1       -0.2276
     19 C         140.8055  142.8871  160.2368 C.ar    1  UNL1        0.1543
     20 N         141.5094  140.6719  157.7652 N.am    1  UNL1       -0.3023
     21 C         142.3189  141.7110  158.4829 C.2     1  UNL1        0.2487
     22 O         143.7921  141.5091  158.6810 O.2     1  UNL1       -0.2700
     23 H         140.5425  140.8044  157.6352 H       1  UNL1        0.1497
     24 C         144.1637  135.7085  155.6869 C.3     1  UNL1        0.0896
     25 N         143.5001  136.9494  156.2065 N.3     1  UNL1       -0.2714
     26 C         143.5946  138.2307  155.4324 C.3     1  UNL1        0.0738
     27 C         142.9310  139.4715  155.9519 C.3     1  UNL1        0.0369
     28 C         142.1730  139.4311  157.2456 C.3     1  UNL1        0.0746
     29 C         142.0785  138.1497  158.0198 C.3     1  UNL1        0.0369
     30 C         142.7420  136.9089  157.5002 C.3     1  UNL1        0.0738
@<TRIPOS>BOND
     1    24    25    1
     2    25    26    1
     3    26    27    1
     4    27    28    1
     5    28    20    1
     6    20    21   am
     7    21    22    2
     8    21     1    1
     9     1     2   ar
    10     2     3   ar
    11     3     4   ar
    12     4     5   ar
    13     5     6   ar
    14     6     7    2
    15     6     8   ar
    16     8     9   ar
    17     9    10   ar
    18    10    11   ar
    19    11    12   ar
    20    12    13   ar
    21    13    14   ar
    22    14    15   ar
    23    15    16   ar
    24    16    17   ar
    25    17    18   ar
    26    18    19   ar
    27    28    29    1
    28    29    30    1
    29    30    25    1
    30    19     1   ar
    31    19     5   ar
    32    17     8   ar
    33    16    11   ar
    34    20    23    1
@<TRIPOS>MOLECULE
*****
 30 34 0 0 0
SMALL
GASTEIGER

@<TRIPOS>ATOM
      1 C         141.4403  138.3379  162.5950 C.ar    1  UNL1        0.0878
      2 C         141.3568  137.0214  163.3091 C.ar    1  UNL1        0.0091
      3 C         140.4989  136.8846  164.5320 C.ar    1  UNL1        0.0194
      4 C         139.7246  138.0643  165.0407 C.ar    1  UNL1        0.0844
      5 N         139.8081  139.3807  164.3266 N.ar    1  UNL1       -0.2576
      6 C         139.0337  140.5604  164.8354 C.ar    1  UNL1        0.2672
      7 O         138.1759  140.4236  166.0582 O.2     1  UNL1       -0.2665
      8 C         139.1173  141.8769  164.1212 C.ar    1  UNL1        0.0742
      9 C         138.3429  143.0565  164.6299 C.ar    1  UNL1        0.0063
     10 C         138.4264  144.3730  163.9159 C.ar    1  UNL1        0.0003
     11 C         139.2843  144.5098  162.6930 C.ar    1  UNL1        0.0015
     12 C         139.3679  145.8263  161.9789 C.ar    1  UNL1        0.0000
     13 C         140.2257  145.9630  160.7561 C.ar    1  UNL1        0.0000
     14 C         141.0001  144.7834  160.2474 C.ar    1  UNL1        0.0000
     15 C         140.9166  143.4670  160.9614 C.ar    1  UNL1        0.0015
     16 C         140.0587  143.3302  162.1843 C.ar    1  UNL1        0.0179
     17 C         139.9751  142.0137  162.8984 C.ar    1  UNL1        0.0875
     18 N         140.7495  140.8340  162.3897 N.ar    1  UNL1       -0.2276
     19 C         140.6660  139.5176  163.1037 C.ar    1  UNL1        0.1543
     20 N         141.7238  139.0557  160.1142 N.am    1  UNL1       -0.3023
     21 C         142.2982  138.4747  161.3722 C.2     1  UNL1        0.2487
     22 O         143.7305  138.0305  161.4073 O.2     1  UNL1       -0.2700
     23 H         140.7837  139.3473  160.0911 H       1  UNL1        0.1497
     24 C         145.1554  139.6027  155.2229 C.3     1  UNL1        0.0896
     25 N         144.2975  139.4660  156.4458 N.3     1  UNL1       -0.2714
     26 C         144.4011  140.4745  157.5512 C.3     1  UNL1        0.0738
     27 C         143.5432  140.3378  158.7740 C.3     1  UNL1        0.0369
     28 C         142.5817  139.1925  158.8914 C.3     1  UNL1        0.0746
     29 C         142.4782  138.1839  157.7859 C.3     1  UNL1        0.0369
     30 C         143.3361  138.3206  156.5631 C.3     1  UNL1        0.0738
@<TRIPOS>BOND
     1    24    25    1
     2    25    26    1
     3    26    27    1
     4    27    28    1
     5    28    20    1
     6    20    21   am
     7    21    22    2
     8    21     1    1
     9     1     2   ar
    10     2     3   ar
    11     3     4   ar
    12     4     5   ar
    13     5     6   ar
    14     6     7    2
    15     6     8   ar
    16     8     9   ar
    17     9    10   ar
    18    10    11   ar
    19    11    12   ar
    20    12    13   ar
    21    13    14   ar
    22    14    15   ar
    23    15    16   ar
    24    16    17   ar
    25    17    18   ar
    26    18    19   ar
    27    28    29    1
    28    29    30    1
    29    30    25    1
    30    19     1   ar
    31    19     5   ar
    32    17     8   ar
    33    16    11   ar
    34    20    23    1
@<TRIPOS>MOLECULE
*****
 30 34 0 0 0
SMALL
GASTEIGER

@<TRIPOS>ATOM
      1 C         141.5005  139.0990  160.4681 C.ar    1  UNL1        0.0878
      2 C         142.4592  138.0515  159.9846 C.ar    1  UNL1        0.0091
      3 C         143.6323  137.6595  160.8331 C.ar    1  UNL1        0.0194
      4 C         143.8468  138.3149  162.1651 C.ar    1  UNL1        0.0844
      5 N         142.8882  139.3623  162.6487 N.ar    1  UNL1       -0.2576
      6 C         143.1027  140.0177  163.9808 C.ar    1  UNL1        0.2672
      7 O         144.2759  139.6257  164.8293 O.2     1  UNL1       -0.2665
      8 C         142.1440  141.0652  164.4643 C.ar    1  UNL1        0.0742
      9 C         142.3586  141.7206  165.7964 C.ar    1  UNL1        0.0063
     10 C         141.3999  142.7681  166.2800 C.ar    1  UNL1        0.0003
     11 C         140.2267  143.1602  165.4314 C.ar    1  UNL1        0.0015
     12 C         139.2681  144.2076  165.9150 C.ar    1  UNL1        0.0000
     13 C         138.0949  144.5996  165.0665 C.ar    1  UNL1        0.0000
     14 C         137.8804  143.9442  163.7344 C.ar    1  UNL1        0.0000
     15 C         138.8391  142.8968  163.2509 C.ar    1  UNL1        0.0015
     16 C         140.0122  142.5047  164.0994 C.ar    1  UNL1        0.0179
     17 C         140.9709  141.4573  163.6158 C.ar    1  UNL1        0.0875
     18 N         140.7564  140.8018  162.2837 N.ar    1  UNL1       -0.2276
     19 C         141.7150  139.7544  161.8002 C.ar    1  UNL1        0.1543
     20 N         140.5018  140.4894  158.5138 N.am    1  UNL1       -0.3023
     21 C         140.3273  139.4910  159.6196 C.2     1  UNL1        0.2487
     22 O         138.9797  138.8846  159.8768 O.2     1  UNL1       -0.2700
     23 H         141.3863  140.8874  158.3450 H       1  UNL1        0.1497
     24 C         135.8090  142.0573  155.1197 C.3     1  UNL1        0.0896
     25 N         136.9822  141.6653  155.9683 N.3     1  UNL1       -0.2714
     26 C         137.4313  142.5591  157.0861 C.3     1  UNL1        0.0738
     27 C         138.6044  142.1671  157.9346 C.3     1  UNL1        0.0369
     28 C         139.3286  140.8814  157.6653 C.3     1  UNL1        0.0746
     29 C         138.8795  139.9877  156.5474 C.3     1  UNL1        0.0369
     30 C         137.7064  140.3796  155.6989 C.3     1  UNL1        0.0738
@<TRIPOS>BOND
     1    24    25    1
     2    25    26    1
     3    26    27    1
     4    27    28    1
     5    28    20    1
     6    20    21   am
     7    21    22    2
     8    21     1    1
     9     1     2   ar
    10     2     3   ar
    11     3     4   ar
    12     4     5   ar
    13     5     6   ar
    14     6     7    2
    15     6     8   ar
    16     8     9   ar
    17     9    10   ar
    18    10    11   ar
    19    11    12   ar
    20    12    13   ar
    21    13    14   ar
    22    14    15   ar
    23    15    16   ar
    24    16    17   ar
    25    17    18   ar
    26    18    19   ar
    27    28    29    1
    28    29    30    1
    29    30    25    1
    30    19     1   ar
    31    19     5   ar
    32    17     8   ar
    33    16    11   ar
    34    20    23    1
@<TRIPOS>MOLECULE
*****
 30 34 0 0 0
SMALL
GASTEIGER

@<TRIPOS>ATOM
      1 C         139.7875  144.3588  163.0870 C.ar    1  UNL1        0.0878
      2 C         139.1888  145.7194  162.8861 C.ar    1  UNL1        0.0091
      3 C         139.4690  146.4836  161.6262 C.ar    1  UNL1        0.0194
      4 C         140.3479  145.8872  160.5670 C.ar    1  UNL1        0.0844
      5 N         140.9466  144.5266  160.7678 N.ar    1  UNL1       -0.2576
      6 C         141.8255  143.9302  159.7086 C.ar    1  UNL1        0.2672
      7 O         142.1056  144.6944  158.4487 O.2     1  UNL1       -0.2665
      8 C         142.4242  142.5696  159.9095 C.ar    1  UNL1        0.0742
      9 C         143.3031  141.9731  158.8503 C.ar    1  UNL1        0.0063
     10 C         143.9018  140.6126  159.0511 C.ar    1  UNL1        0.0003
     11 C         143.6216  139.8483  160.3111 C.ar    1  UNL1        0.0015
     12 C         144.2203  138.4878  160.5118 C.ar    1  UNL1        0.0000
     13 C         143.9401  137.7236  161.7718 C.ar    1  UNL1        0.0000
     14 C         143.0612  138.3200  162.8309 C.ar    1  UNL1        0.0000
     15 C         142.4625  139.6806  162.6302 C.ar    1  UNL1        0.0015
     16 C         142.7427  140.4447  161.3702 C.ar    1  UNL1        0.0179
     17 C         142.1440  141.8054  161.1694 C.ar    1  UNL1        0.0875
     18 N         141.2651  142.4018  162.2286 N.ar    1  UNL1       -0.2276
     19 C         140.6664  143.7624  162.0278 C.ar    1  UNL1        0.1543
     20 N         140.6430  143.0608  165.1686 N.am    1  UNL1       -0.3023
     21 C         139.5073  143.5946  164.3469 C.2     1  UNL1        0.2487
     22 O         138.0913  143.3642  164.7852 O.2     1  UNL1       -0.2700
     23 H         141.5723  143.2120  164.8810 H       1  UNL1        0.1497
     24 C         139.5220  140.0042  170.2086 C.3     1  UNL1        0.0896
     25 N         139.8023  140.7684  168.9486 N.3     1  UNL1       -0.2714
     26 C         139.6377  140.1019  167.6149 C.3     1  UNL1        0.0738
     27 C         139.9179  140.8660  166.3549 C.3     1  UNL1        0.0369
     28 C         140.3627  142.2966  166.4286 C.3     1  UNL1        0.0746
     29 C         140.5273  142.9631  167.7623 C.3     1  UNL1        0.0369
     30 C         140.2471  142.1990  169.0223 C.3     1  UNL1        0.0738
@<TRIPOS>BOND
     1    24    25    1
     2    25    26    1
     3    26    27    1
     4    27    28    1
     5    28    20    1
     6    20    21   am
     7    21    22    2
     8    21     1    1
     9     1     2   ar
    10     2     3   ar
    11     3     4   ar
    12     4     5   ar
    13     5     6   ar
    14     6     7    2
    15     6     8   ar
    16     8     9   ar
    17     9    10   ar
    18    10    11   ar
    19    11    12   ar
    20    12    13   ar
    21    13    14   ar
    22    14    15   ar
    23    15    16   ar
    24    16    17   ar
    25    17    18   ar
    26    18    19   ar
    27    28    29    1
    28    29    30    1
    29    30    25    1
    30    19     1   ar
    31    19     5   ar
    32    17     8   ar
    33    16    11   ar
    34    20    23    1
