@<TRIPOS>MOLECULE
*****
 28 31 0 0 0
SMALL
GASTEIGER

@<TRIPOS>ATOM
      1 C         144.5343  140.3979  162.1929 C.3     1  UNL1        0.0122
      2 C         143.7896  140.2474  163.4863 C.3     1  UNL1        0.0568
      3 S         144.2219  139.2150  164.4849 S.3     1  UNL1       -0.0816
      4 C         143.4772  139.0646  165.7783 C.2     1  UNL1        0.1482
      5 N         143.9095  138.0321  166.7769 N.pl3   1  UNL1       -0.3380
      6 N         142.3002  139.9465  166.0730 N.2     1  UNL1       -0.2484
      7 C         141.8679  140.9789  165.0744 C.3     1  UNL1        0.1351
      8 C         140.6909  141.8609  165.3691 C.3     1  UNL1        0.1690
      9 O         140.2587  142.8933  164.3705 O.3     1  UNL1       -0.3494
     10 C         141.0034  143.0437  163.0771 C.3     1  UNL1        0.1406
     11 C         142.1803  142.1618  162.7824 C.3     1  UNL1        0.0374
     12 C         142.6126  141.1294  163.7810 C.3     1  UNL1        0.0402
     13 H         144.6820  137.4533  166.5834 H       1  UNL1        0.1442
     14 H         143.4207  137.9333  167.6258 H       1  UNL1        0.1442
     15 C         141.1232  140.8285  166.3677 C.ar    1  UNL1        0.0278
     16 C         139.9531  139.8940  166.4551 C.ar    1  UNL1        0.0021
     17 C         139.2084  139.7435  167.7485 C.ar    1  UNL1        0.0295
     18 C         139.6338  140.5276  168.9545 C.ar    1  UNL1        0.1424
     19 F         138.8891  140.3771  170.2478 F       1  UNL1       -0.2041
     20 C         140.8039  141.4620  168.8671 C.ar    1  UNL1        0.0590
     21 C         141.5486  141.6125  167.5737 C.ar    1  UNL1        0.1402
     22 F         142.7187  142.5469  167.4863 F       1  UNL1       -0.2044
     23 C         140.5711  144.0762  162.0785 C.ar    1  UNL1        0.0442
     24 C         139.7336  145.2865  162.3680 C.ar    1  UNL1        0.1197
     25 N         139.5452  146.0379  161.0835 N.ar    1  UNL1       -0.1679
     26 N         140.2663  145.2919  160.0001 N.ar    1  UNL1       -0.2476
     27 C         140.3404  145.6888  158.5555 C.3     1  UNL1        0.1537
     28 C         140.9003  144.0795  160.6151 C.ar    1  UNL1        0.0947
@<TRIPOS>BOND
     1     2     1    1
     2     2     3    1
     3     3     4    1
     4     4     5    1
     5     4     6    2
     6     6     7    1
     7     7    15    1
     8    15    16   ar
     9    16    17   ar
    10    17    18   ar
    11    18    19    1
    12    18    20   ar
    13    20    21   ar
    14    21    22    1
    15     7     8    1
    16     8     9    1
    17     9    10    1
    18    10    23    1
    19    23    24   ar
    20    24    25   ar
    21    25    26   ar
    22    26    27    1
    23    26    28   ar
    24    10    11    1
    25    12    11    1
    26    12     2    1
    27    12     7    1
    28    21    15   ar
    29    28    23   ar
    30     5    13    1
    31     5    14    1
@<TRIPOS>MOLECULE
*****
 28 31 0 0 0
SMALL
GASTEIGER

@<TRIPOS>ATOM
      1 C         144.5559  140.4839  162.2222 C.3     1  UNL1        0.0122
      2 C         143.7905  140.3186  163.5016 C.3     1  UNL1        0.0568
      3 S         144.2183  139.2876  164.5036 S.3     1  UNL1       -0.0816
      4 C         143.4529  139.1223  165.7830 C.2     1  UNL1        0.1482
      5 N         143.8807  138.0913  166.7851 N.pl3   1  UNL1       -0.3380
      6 N         142.2597  139.9879  166.0604 N.2     1  UNL1       -0.2484
      7 C         141.8319  141.0190  165.0584 C.3     1  UNL1        0.1351
      8 C         140.6387  141.8846  165.3358 C.3     1  UNL1        0.1690
      9 O         140.2110  142.9156  164.3338 O.3     1  UNL1       -0.3494
     10 C         140.9763  143.0809  163.0544 C.3     1  UNL1        0.1406
     11 C         142.1695  142.2153  162.7770 C.3     1  UNL1        0.0374
     12 C         142.5973  141.1843  163.7790 C.3     1  UNL1        0.0402
     13 H         144.6638  137.5231  166.6030 H       1  UNL1        0.1442
     14 H         143.3784  137.9827  167.6248 H       1  UNL1        0.1442
     15 C         141.0665  140.8537  166.3378 C.ar    1  UNL1        0.0278
     16 C         141.4036  141.7016  167.5284 C.ar    1  UNL1        0.0021
     17 C         140.6383  141.5363  168.8078 C.ar    1  UNL1        0.0295
     18 C         139.5358  140.5230  168.8966 C.ar    1  UNL1        0.1424
     19 F         138.7704  140.3577  170.1760 F       1  UNL1       -0.2041
     20 C         139.1987  139.6751  167.7061 C.ar    1  UNL1        0.0590
     21 C         139.9641  139.8404  166.4267 C.ar    1  UNL1        0.1402
     22 F         139.6270  138.9925  165.2361 F       1  UNL1       -0.2044
     23 C         140.5485  144.1120  162.0524 C.ar    1  UNL1        0.0442
     24 C         139.7220  145.3304  162.3391 C.ar    1  UNL1        0.1197
     25 N         139.5347  146.0771  161.0517 N.ar    1  UNL1       -0.1679
     26 N         140.2455  145.3200  159.9693 N.ar    1  UNL1       -0.2476
     27 C         140.3172  145.7092  158.5224 C.3     1  UNL1        0.1537
     28 C         140.8721  144.1056  160.5877 C.ar    1  UNL1        0.0947
@<TRIPOS>BOND
     1     2     1    1
     2     2     3    1
     3     3     4    1
     4     4     5    1
     5     4     6    2
     6     6     7    1
     7     7    15    1
     8    15    16   ar
     9    16    17   ar
    10    17    18   ar
    11    18    19    1
    12    18    20   ar
    13    20    21   ar
    14    21    22    1
    15     7     8    1
    16     8     9    1
    17     9    10    1
    18    10    23    1
    19    23    24   ar
    20    24    25   ar
    21    25    26   ar
    22    26    27    1
    23    26    28   ar
    24    10    11    1
    25    12    11    1
    26    12     2    1
    27    12     7    1
    28    21    15   ar
    29    28    23   ar
    30     5    13    1
    31     5    14    1
@<TRIPOS>MOLECULE
*****
 28 31 0 0 0
SMALL
GASTEIGER

@<TRIPOS>ATOM
      1 C         145.1738  141.8048  163.1150 C.3     1  UNL1        0.0122
      2 C         144.0918  141.0198  163.7955 C.3     1  UNL1        0.0568
      3 S         144.4500  139.8937  164.7193 S.3     1  UNL1       -0.0816
      4 C         143.3680  139.1088  165.3999 C.2     1  UNL1        0.1482
      5 N         143.7263  137.9826  166.3237 N.pl3   1  UNL1       -0.3380
      6 N         141.9277  139.4500  165.1566 N.2     1  UNL1       -0.2484
      7 C         141.5694  140.5762  164.2328 C.3     1  UNL1        0.1351
      8 C         140.1292  140.9174  163.9896 C.3     1  UNL1        0.1690
      9 O         139.7709  142.0436  163.0658 O.3     1  UNL1       -0.3494
     10 C         140.8530  142.8285  162.3852 C.3     1  UNL1        0.1406
     11 C         142.2932  142.4873  162.6285 C.3     1  UNL1        0.0374
     12 C         142.6514  141.3611  163.5522 C.3     1  UNL1        0.0402
     13 H         144.6716  137.7586  166.4833 H       1  UNL1        0.1442
     14 H         143.0161  137.4674  166.7704 H       1  UNL1        0.1442
     15 C         140.4874  139.7913  164.9134 C.ar    1  UNL1        0.0278
     16 C         139.9418  140.2535  166.2320 C.ar    1  UNL1        0.0021
     17 C         138.8598  139.4686  166.9126 C.ar    1  UNL1        0.0295
     18 C         138.3234  138.2215  166.2745 C.ar    1  UNL1        0.1424
     19 F         137.2414  137.4365  166.9551 F       1  UNL1       -0.2041
     20 C         138.8691  137.7593  164.9560 C.ar    1  UNL1        0.0590
     21 C         139.9511  138.5442  164.2754 C.ar    1  UNL1        0.1402
     22 F         140.4967  138.0820  162.9569 F       1  UNL1       -0.2044
     23 C         140.4946  143.9547  161.4614 C.ar    1  UNL1        0.0442
     24 C         139.7949  145.2238  161.8483 C.ar    1  UNL1        0.1197
     25 N         139.6409  146.0629  160.6146 N.ar    1  UNL1       -0.1679
     26 N         140.2456  145.3124  159.4652 N.ar    1  UNL1       -0.2476
     27 C         140.3111  145.7824  158.0422 C.3     1  UNL1        0.1537
     28 C         140.7732  144.0095  159.9885 C.ar    1  UNL1        0.0947
@<TRIPOS>BOND
     1     2     1    1
     2     2     3    1
     3     3     4    1
     4     4     5    1
     5     4     6    2
     6     6     7    1
     7     7    15    1
     8    15    16   ar
     9    16    17   ar
    10    17    18   ar
    11    18    19    1
    12    18    20   ar
    13    20    21   ar
    14    21    22    1
    15     7     8    1
    16     8     9    1
    17     9    10    1
    18    10    23    1
    19    23    24   ar
    20    24    25   ar
    21    25    26   ar
    22    26    27    1
    23    26    28   ar
    24    10    11    1
    25    12    11    1
    26    12     2    1
    27    12     7    1
    28    21    15   ar
    29    28    23   ar
    30     5    13    1
    31     5    14    1
@<TRIPOS>MOLECULE
*****
 28 31 0 0 0
SMALL
GASTEIGER

@<TRIPOS>ATOM
      1 C         138.7599  144.9231  165.4195 C.3     1  UNL1        0.0122
      2 C         139.5461  144.4522  164.2320 C.3     1  UNL1        0.0568
      3 S         139.2191  144.9701  162.8628 S.3     1  UNL1       -0.0816
      4 C         140.0053  144.4993  161.6753 C.2     1  UNL1        0.1482
      5 N         139.6783  145.0173  160.3060 N.pl3   1  UNL1       -0.3380
      6 N         141.1186  143.5106  161.8570 N.2     1  UNL1       -0.2484
      7 C         141.4457  142.9927  163.2263 C.3     1  UNL1        0.1351
      8 C         142.5589  142.0039  163.4080 C.3     1  UNL1        0.1690
      9 O         142.8859  141.4860  164.7772 O.3     1  UNL1       -0.3494
     10 C         142.0997  141.9569  165.9647 C.3     1  UNL1        0.1406
     11 C         140.9864  142.9456  165.7830 C.3     1  UNL1        0.0374
     12 C         140.6594  143.4635  164.4138 C.3     1  UNL1        0.0402
     13 H         138.9476  145.6662  160.1867 H       1  UNL1        0.1442
     14 H         140.1943  144.7083  159.5266 H       1  UNL1        0.1442
     15 C         142.2319  142.5218  162.0387 C.ar    1  UNL1        0.0278
     16 C         141.7749  141.3208  161.2650 C.ar    1  UNL1        0.0021
     17 C         142.5611  140.8499  160.0775 C.ar    1  UNL1        0.0295
     18 C         143.8044  141.5802  159.6637 C.ar    1  UNL1        0.1424
     19 F         144.5906  141.1094  158.4762 F       1  UNL1       -0.2041
     20 C         144.2613  142.7812  160.4375 C.ar    1  UNL1        0.0590
     21 C         143.4751  143.2520  161.6250 C.ar    1  UNL1        0.1402
     22 F         143.9320  144.4530  162.3987 F       1  UNL1       -0.2044
     23 C         142.4268  141.4389  167.3339 C.ar    1  UNL1        0.0442
     24 C         143.0738  142.2184  168.4401 C.ar    1  UNL1        0.1197
     25 N         143.2112  141.3119  169.6273 N.ar    1  UNL1       -0.1679
     26 N         142.6490  139.9720  169.2547 N.ar    1  UNL1       -0.2476
     27 C         142.5831  138.7654  170.1435 C.3     1  UNL1        0.1537
     28 C         142.1642  140.0505  167.8374 C.ar    1  UNL1        0.0947
@<TRIPOS>BOND
     1     2     1    1
     2     2     3    1
     3     3     4    1
     4     4     5    1
     5     4     6    2
     6     6     7    1
     7     7    15    1
     8    15    16   ar
     9    16    17   ar
    10    17    18   ar
    11    18    19    1
    12    18    20   ar
    13    20    21   ar
    14    21    22    1
    15     7     8    1
    16     8     9    1
    17     9    10    1
    18    10    23    1
    19    23    24   ar
    20    24    25   ar
    21    25    26   ar
    22    26    27    1
    23    26    28   ar
    24    10    11    1
    25    12    11    1
    26    12     2    1
    27    12     7    1
    28    21    15   ar
    29    28    23   ar
    30     5    13    1
    31     5    14    1
@<TRIPOS>MOLECULE
*****
 28 31 0 0 0
SMALL
GASTEIGER

@<TRIPOS>ATOM
      1 C         138.8700  137.3076  163.6741 C.3     1  UNL1        0.0122
      2 C         138.9222  138.7255  163.1872 C.3     1  UNL1        0.0568
      3 S         138.5378  139.0476  161.7736 S.3     1  UNL1       -0.0816
      4 C         138.5901  140.4654  161.2866 C.2     1  UNL1        0.1482
      5 N         138.2057  140.7875  159.8729 N.pl3   1  UNL1       -0.3380
      6 N         139.0267  141.5611  162.2133 N.2     1  UNL1       -0.2484
      7 C         139.4110  141.2390  163.6271 C.3     1  UNL1        0.1351
      8 C         139.8476  142.3346  164.5538 C.3     1  UNL1        0.1690
      9 O         140.2320  142.0125  165.9674 O.3     1  UNL1       -0.3494
     10 C         140.1798  140.5947  166.4544 C.3     1  UNL1        0.1406
     11 C         139.7432  139.4990  165.5277 C.3     1  UNL1        0.0374
     12 C         139.3588  139.8211  164.1140 C.3     1  UNL1        0.0402
     13 H         137.9191  140.0684  159.2647 H       1  UNL1        0.1442
     14 H         138.2400  141.7181  159.5533 H       1  UNL1        0.1442
     15 C         139.4633  142.6568  163.1402 C.ar    1  UNL1        0.0278
     16 C         140.7283  143.1987  162.5433 C.ar    1  UNL1        0.0021
     17 C         140.7805  144.6165  162.0564 C.ar    1  UNL1        0.0295
     18 C         139.5677  145.4924  162.1663 C.ar    1  UNL1        0.1424
     19 F         139.6200  146.9102  161.6794 F       1  UNL1       -0.2041
     20 C         138.3028  144.9505  162.7631 C.ar    1  UNL1        0.0590
     21 C         138.2506  143.5327  163.2500 C.ar    1  UNL1        0.1402
     22 F         136.9857  142.9907  163.8468 F       1  UNL1       -0.2044
     23 C         140.5642  140.2726  167.8681 C.ar    1  UNL1        0.0442
     24 C         139.6173  140.0381  169.0076 C.ar    1  UNL1        0.1197
     25 N         140.4307  139.7490  170.2343 N.ar    1  UNL1       -0.1679
     26 N         141.8804  139.8048  169.8528 N.ar    1  UNL1       -0.2476
     27 C         143.0434  139.5770  170.7724 C.3     1  UNL1        0.1537
     28 C         141.9628  140.1284  168.3905 C.ar    1  UNL1        0.0947
@<TRIPOS>BOND
     1     2     1    1
     2     2     3    1
     3     3     4    1
     4     4     5    1
     5     4     6    2
     6     6     7    1
     7     7    15    1
     8    15    16   ar
     9    16    17   ar
    10    17    18   ar
    11    18    19    1
    12    18    20   ar
    13    20    21   ar
    14    21    22    1
    15     7     8    1
    16     8     9    1
    17     9    10    1
    18    10    23    1
    19    23    24   ar
    20    24    25   ar
    21    25    26   ar
    22    26    27    1
    23    26    28   ar
    24    10    11    1
    25    12    11    1
    26    12     2    1
    27    12     7    1
    28    21    15   ar
    29    28    23   ar
    30     5    13    1
    31     5    14    1
@<TRIPOS>MOLECULE
*****
 28 31 0 0 0
SMALL
GASTEIGER

@<TRIPOS>ATOM
      1 C         138.6903  138.9484  163.2719 C.3     1  UNL1        0.0122
      2 C         139.1442  139.4393  164.6146 C.3     1  UNL1        0.0568
      3 S         138.3953  139.0403  165.8515 S.3     1  UNL1       -0.0816
      4 C         138.8492  139.5313  167.1942 C.2     1  UNL1        0.1482
      5 N         138.1002  139.1323  168.4312 N.pl3   1  UNL1       -0.3380
      6 N         140.0520  140.4213  167.3001 N.2     1  UNL1       -0.2484
      7 C         140.8009  140.8203  166.0632 C.3     1  UNL1        0.1351
      8 C         142.0037  141.7103  166.1690 C.3     1  UNL1        0.1690
      9 O         142.7525  142.1093  164.9321 O.3     1  UNL1       -0.3494
     10 C         142.2986  141.6183  163.5894 C.3     1  UNL1        0.1406
     11 C         141.0959  140.7284  163.4835 C.3     1  UNL1        0.0374
     12 C         140.3470  140.3294  164.7204 C.3     1  UNL1        0.0402
     13 H         137.3108  138.5481  168.3617 H       1  UNL1        0.1442
     14 H         138.3981  139.4545  169.3125 H       1  UNL1        0.1442
     15 C         141.2548  141.3113  167.4059 C.ar    1  UNL1        0.0278
     16 C         140.6787  142.5730  167.9772 C.ar    1  UNL1        0.0021
     17 C         141.1326  143.0640  169.3199 C.ar    1  UNL1        0.0295
     18 C         142.1626  142.2932  170.0914 C.ar    1  UNL1        0.1424
     19 F         142.6165  142.7842  171.4341 F       1  UNL1       -0.2041
     20 C         142.7387  141.0316  169.5201 C.ar    1  UNL1        0.0590
     21 C         142.2848  140.5406  168.1774 C.ar    1  UNL1        0.1402
     22 F         142.8608  139.2790  167.6061 F       1  UNL1       -0.2044
     23 C         143.0476  142.0174  162.3525 C.ar    1  UNL1        0.0442
     24 C         144.5392  142.0513  162.1973 C.ar    1  UNL1        0.1197
     25 N         144.8499  142.5074  160.8026 N.ar    1  UNL1       -0.1679
     26 N         143.5503  142.7555  160.0957 N.ar    1  UNL1       -0.2476
     27 C         143.3924  143.2241  158.6795 C.3     1  UNL1        0.1537
     28 C         142.4365  142.4526  161.0536 C.ar    1  UNL1        0.0947
@<TRIPOS>BOND
     1     2     1    1
     2     2     3    1
     3     3     4    1
     4     4     5    1
     5     4     6    2
     6     6     7    1
     7     7    15    1
     8    15    16   ar
     9    16    17   ar
    10    17    18   ar
    11    18    19    1
    12    18    20   ar
    13    20    21   ar
    14    21    22    1
    15     7     8    1
    16     8     9    1
    17     9    10    1
    18    10    23    1
    19    23    24   ar
    20    24    25   ar
    21    25    26   ar
    22    26    27    1
    23    26    28   ar
    24    10    11    1
    25    12    11    1
    26    12     2    1
    27    12     7    1
    28    21    15   ar
    29    28    23   ar
    30     5    13    1
    31     5    14    1
@<TRIPOS>MOLECULE
*****
 28 31 0 0 0
SMALL
GASTEIGER

@<TRIPOS>ATOM
      1 C         138.0160  144.3751  165.0840 C.3     1  UNL1        0.0122
      2 C         138.5179  143.4683  163.9996 C.3     1  UNL1        0.0568
      3 S         138.2362  143.7908  162.5621 S.3     1  UNL1       -0.0816
      4 C         138.7382  142.8841  161.4777 C.2     1  UNL1        0.1482
      5 N         138.4564  143.2066  160.0401 N.pl3   1  UNL1       -0.3380
      6 N         139.5218  141.6548  161.8309 N.2     1  UNL1       -0.2484
      7 C         139.8036  141.3323  163.2685 C.3     1  UNL1        0.1351
      8 C         140.5872  140.1030  163.6217 C.3     1  UNL1        0.1690
      9 O         140.8690  139.7805  165.0592 O.3     1  UNL1       -0.3494
     10 C         140.3670  140.6873  166.1436 C.3     1  UNL1        0.1406
     11 C         139.5834  141.9165  165.7904 C.3     1  UNL1        0.0374
     12 C         139.3016  142.2390  164.3529 C.3     1  UNL1        0.0402
     13 H         137.9421  144.0135  159.8083 H       1  UNL1        0.1442
     14 H         138.7859  142.6115  159.3284 H       1  UNL1        0.1442
     15 C         140.3055  140.4255  162.1841 C.ar    1  UNL1        0.0278
     16 C         141.6681  140.6429  161.5956 C.ar    1  UNL1        0.0021
     17 C         142.1700  139.7361  160.5112 C.ar    1  UNL1        0.0295
     18 C         141.3094  138.6120  160.0154 C.ar    1  UNL1        0.1424
     19 F         141.8114  137.7053  158.9310 F       1  UNL1       -0.2041
     20 C         139.9470  138.3947  160.6039 C.ar    1  UNL1        0.0590
     21 C         139.4450  139.3015  161.6883 C.ar    1  UNL1        0.1402
     22 F         138.0825  139.0842  162.2768 F       1  UNL1       -0.2044
     23 C         140.6488  140.3647  167.5812 C.ar    1  UNL1        0.0442
     24 C         139.6264  140.0287  168.6261 C.ar    1  UNL1        0.1197
     25 N         140.3480  139.7779  169.9170 N.ar    1  UNL1       -0.1679
     26 N         141.8165  139.9589  169.6698 N.ar    1  UNL1       -0.2476
     27 C         142.9075  139.8043  170.6876 C.3     1  UNL1        0.1537
     28 C         142.0023  140.3216  168.2262 C.ar    1  UNL1        0.0947
@<TRIPOS>BOND
     1     2     1    1
     2     2     3    1
     3     3     4    1
     4     4     5    1
     5     4     6    2
     6     6     7    1
     7     7    15    1
     8    15    16   ar
     9    16    17   ar
    10    17    18   ar
    11    18    19    1
    12    18    20   ar
    13    20    21   ar
    14    21    22    1
    15     7     8    1
    16     8     9    1
    17     9    10    1
    18    10    23    1
    19    23    24   ar
    20    24    25   ar
    21    25    26   ar
    22    26    27    1
    23    26    28   ar
    24    10    11    1
    25    12    11    1
    26    12     2    1
    27    12     7    1
    28    21    15   ar
    29    28    23   ar
    30     5    13    1
    31     5    14    1
