@<TRIPOS>MOLECULE
*****
 25 27 0 0 0
SMALL
GASTEIGER

@<TRIPOS>ATOM
      1 C         138.4892  139.1007  165.9081 C.ar    1  UNL1       -0.0001
      2 C         138.8091  137.7701  165.2941 C.ar    1  UNL1       -0.0003
      3 C         138.8894  137.6322  163.8026 C.ar    1  UNL1       -0.0031
      4 C         138.6498  138.8249  162.9252 C.ar    1  UNL1       -0.0071
      5 C         138.3299  140.1555  163.5392 C.ar    1  UNL1       -0.0071
      6 C         138.2496  140.2934  165.0307 C.ar    1  UNL1       -0.0031
      7 C         138.1435  141.1460  162.4282 C.3     1  UNL1        0.1222
      8 N         138.3483  140.4275  161.1275 N.3     1  UNL1       -0.1462
      9 C         138.6612  138.9930  161.4347 C.3     1  UNL1        0.1222
     10 S         138.2563  141.0366  159.7598 S.O2    1  UNL1        0.0696
     11 O         138.3074  142.4074  160.3667 O.2     1  UNL1       -0.1523
     12 O         138.2053  139.6658  159.1529 O.2     1  UNL1       -0.1523
     13 C         138.1644  141.6455  158.3921 C.ar    1  UNL1        0.1517
     14 C         138.8213  142.9188  157.9479 C.ar    1  UNL1        0.0271
     15 C         138.4623  143.1483  156.5097 C.ar    1  UNL1        0.0089
     16 C         137.5835  142.0170  156.0651 C.ar    1  UNL1        0.0368
     17 S         137.3994  141.0882  157.2284 S.2     1  UNL1       -0.0668
     18 C         139.4638  140.0060  168.1398 C.2     1  UNL1        0.0598
     19 C         138.4088  139.2385  167.3996 C.2     1  UNL1        0.0047
     20 O         138.0675  139.9732  170.3305 O.2     1  UNL1       -0.2681
     21 C         139.3835  140.1439  169.6313 C.2     1  UNL1        0.2679
     22 N         140.6193  140.4525  170.4236 N.am    1  UNL1       -0.1934
     23 O         140.5390  140.5904  171.9151 O.3     1  UNL1       -0.2949
     24 H         141.4831  140.5646  169.9646 H       1  UNL1        0.1825
     25 H         139.6235  140.4514  172.2038 H       1  UNL1        0.2414
@<TRIPOS>BOND
     1    20    21    2
     2    21    18    1
     3    18    19    2
     4    19     1    1
     5     1     2   ar
     6     2     3   ar
     7     3     4   ar
     8     4     5   ar
     9     5     6   ar
    10     5     7    1
    11     7     8    1
    12     8    10    1
    13    10    11    2
    14    10    12    2
    15    10    13    1
    16    13    14   ar
    17    14    15   ar
    18    15    16   ar
    19    16    17   ar
    20     8     9    1
    21    21    22   am
    22    22    23    1
    23     6     1   ar
    24    17    13   ar
    25     9     4    1
    26    22    24    1
    27    23    25    1
@<TRIPOS>MOLECULE
*****
 25 27 0 0 0
SMALL
GASTEIGER

@<TRIPOS>ATOM
      1 C         140.3351  143.2044  166.2437 C.ar    1  UNL1       -0.0001
      2 C         139.1913  144.1713  166.1611 C.ar    1  UNL1       -0.0003
      3 C         138.8897  144.8675  164.8671 C.ar    1  UNL1       -0.0031
      4 C         139.7320  144.5968  163.6558 C.ar    1  UNL1       -0.0071
      5 C         140.8757  143.6299  163.7384 C.ar    1  UNL1       -0.0071
      6 C         141.1773  142.9337  165.0324 C.ar    1  UNL1       -0.0031
      7 C         141.5261  143.5647  162.3883 C.3     1  UNL1        0.1222
      8 N         140.7843  144.4913  161.4712 N.3     1  UNL1       -0.1462
      9 C         139.6754  145.1292  162.2546 C.3     1  UNL1        0.1222
     10 S         141.0964  144.7370  160.0247 S.O2    1  UNL1        0.0696
     11 O         142.5104  144.2921  160.2543 O.2     1  UNL1       -0.1523
     12 O         139.6824  145.1819  159.7952 O.2     1  UNL1       -0.1523
     13 C         141.4085  144.9827  158.5783 C.ar    1  UNL1        0.1517
     14 C         140.7240  145.9743  157.6848 C.ar    1  UNL1        0.0271
     15 C         141.3523  145.8843  156.3256 C.ar    1  UNL1        0.0089
     16 C         142.4250  144.8373  156.3792 C.ar    1  UNL1        0.0368
     17 S         142.4597  144.2800  157.7715 S.2     1  UNL1       -0.0668
     18 C         140.3319  143.1840  168.8417 C.2     1  UNL1        0.0598
     19 C         140.6367  142.5082  167.5377 C.2     1  UNL1        0.0047
     20 O         139.6923  141.4462  170.6640 O.2     1  UNL1       -0.2681
     21 C         140.6335  142.4878  170.1357 C.2     1  UNL1        0.2679
     22 N         141.8763  142.8333  170.9013 N.am    1  UNL1       -0.1934
     23 O         142.1779  142.1371  172.1953 O.3     1  UNL1       -0.2949
     24 H         142.4940  143.5169  170.5545 H       1  UNL1        0.1825
     25 H         141.4741  141.4988  172.3907 H       1  UNL1        0.2414
@<TRIPOS>BOND
     1    20    21    2
     2    21    18    1
     3    18    19    2
     4    19     1    1
     5     1     2   ar
     6     2     3   ar
     7     3     4   ar
     8     4     5   ar
     9     5     6   ar
    10     5     7    1
    11     7     8    1
    12     8    10    1
    13    10    11    2
    14    10    12    2
    15    10    13    1
    16    13    14   ar
    17    14    15   ar
    18    15    16   ar
    19    16    17   ar
    20     8     9    1
    21    21    22   am
    22    22    23    1
    23     6     1   ar
    24    17    13   ar
    25     9     4    1
    26    22    24    1
    27    23    25    1
@<TRIPOS>MOLECULE
*****
 25 27 0 0 0
SMALL
GASTEIGER

@<TRIPOS>ATOM
      1 C         139.0860  140.3792  169.6797 C.ar    1  UNL1       -0.0001
      2 C         139.6521  141.7018  170.1042 C.ar    1  UNL1       -0.0003
      3 C         140.3627  142.5682  169.1071 C.ar    1  UNL1       -0.0031
      4 C         140.5072  142.1122  167.6855 C.ar    1  UNL1       -0.0071
      5 C         139.9411  140.7896  167.2610 C.ar    1  UNL1       -0.0071
      6 C         139.2305  139.9231  168.2581 C.ar    1  UNL1       -0.0031
      7 C         140.2357  140.6062  165.8016 C.3     1  UNL1        0.1222
      8 N         140.9839  141.8154  165.3242 N.3     1  UNL1       -0.1462
      9 C         141.1517  142.7462  166.4885 C.3     1  UNL1        0.1222
     10 S         141.4776  142.0524  163.9277 S.O2    1  UNL1        0.0696
     11 O         142.0654  143.3637  164.3580 O.2     1  UNL1       -0.1523
     12 O         140.8898  140.7412  163.4975 O.2     1  UNL1       -0.1523
     13 C         141.9713  142.2893  162.5313 C.ar    1  UNL1        0.1517
     14 C         142.9086  143.3783  162.1004 C.ar    1  UNL1        0.0271
     15 C         143.1309  143.2408  160.6233 C.ar    1  UNL1        0.0089
     16 C         142.3310  142.0670  160.1414 C.ar    1  UNL1        0.0368
     17 S         141.6143  141.4790  161.3206 S.2     1  UNL1       -0.0668
     18 C         136.9487  139.1136  170.4415 C.2     1  UNL1        0.0598
     19 C         138.3754  139.5127  170.6768 C.2     1  UNL1        0.0047
     20 O         136.5656  136.7862  171.5307 O.2     1  UNL1       -0.2681
     21 C         136.2381  138.2471  171.4386 C.2     1  UNL1        0.2679
     22 N         135.2000  138.8416  172.3437 N.am    1  UNL1       -0.1934
     23 O         134.4894  137.9751  173.3408 O.3     1  UNL1       -0.2949
     24 H         134.9851  139.8004  172.2832 H       1  UNL1        0.1825
     25 H         134.8169  137.0648  173.2696 H       1  UNL1        0.2414
@<TRIPOS>BOND
     1    20    21    2
     2    21    18    1
     3    18    19    2
     4    19     1    1
     5     1     2   ar
     6     2     3   ar
     7     3     4   ar
     8     4     5   ar
     9     5     6   ar
    10     5     7    1
    11     7     8    1
    12     8    10    1
    13    10    11    2
    14    10    12    2
    15    10    13    1
    16    13    14   ar
    17    14    15   ar
    18    15    16   ar
    19    16    17   ar
    20     8     9    1
    21    21    22   am
    22    22    23    1
    23     6     1   ar
    24    17    13   ar
    25     9     4    1
    26    22    24    1
    27    23    25    1
@<TRIPOS>MOLECULE
*****
 25 27 0 0 0
SMALL
GASTEIGER

@<TRIPOS>ATOM
      1 C         139.2171  140.0226  166.4475 C.ar    1  UNL1       -0.0001
      2 C         138.5157  138.9680  165.6438 C.ar    1  UNL1       -0.0003
      3 C         138.3213  139.1551  164.1683 C.ar    1  UNL1       -0.0031
      4 C         138.8282  140.3967  163.4965 C.ar    1  UNL1       -0.0071
      5 C         139.5296  141.4512  164.3002 C.ar    1  UNL1       -0.0071
      6 C         139.7240  141.2642  165.7757 C.ar    1  UNL1       -0.0031
      7 C         139.9179  142.5617  163.3694 C.3     1  UNL1        0.1222
      8 N         139.4566  142.1933  161.9905 N.3     1  UNL1       -0.1462
      9 C         138.7831  140.8553  162.0690 C.3     1  UNL1        0.1222
     10 S         139.6370  143.0182  160.7507 S.O2    1  UNL1        0.0696
     11 O         138.1710  143.3360  160.7487 O.2     1  UNL1       -0.1523
     12 O         141.1029  142.7005  160.7527 O.2     1  UNL1       -0.1523
     13 C         139.8175  143.8430  159.5109 C.ar    1  UNL1        0.1517
     14 C         139.4822  143.4172  158.1122 C.ar    1  UNL1        0.0271
     15 C         139.8224  144.5495  157.1890 C.ar    1  UNL1        0.0089
     16 C         140.3679  145.6750  158.0171 C.ar    1  UNL1        0.0368
     17 S         140.3648  145.2383  159.4521 S.2     1  UNL1       -0.0668
     18 C         140.4973  140.5843  168.6374 C.2     1  UNL1        0.0598
     19 C         139.4115  139.8355  167.9231 C.2     1  UNL1        0.0047
     20 O         139.6003  139.7878  170.9419 O.2     1  UNL1       -0.2681
     21 C         140.6918  140.3972  170.1129 C.2     1  UNL1        0.2679
     22 N         141.9778  140.8196  170.7594 N.am    1  UNL1       -0.1934
     23 O         142.1722  140.6325  172.2350 O.3     1  UNL1       -0.2949
     24 H         142.6941  141.2195  170.2153 H       1  UNL1        0.1825
     25 H         141.3772  140.2290  172.6172 H       1  UNL1        0.2414
@<TRIPOS>BOND
     1    20    21    2
     2    21    18    1
     3    18    19    2
     4    19     1    1
     5     1     2   ar
     6     2     3   ar
     7     3     4   ar
     8     4     5   ar
     9     5     6   ar
    10     5     7    1
    11     7     8    1
    12     8    10    1
    13    10    11    2
    14    10    12    2
    15    10    13    1
    16    13    14   ar
    17    14    15   ar
    18    15    16   ar
    19    16    17   ar
    20     8     9    1
    21    21    22   am
    22    22    23    1
    23     6     1   ar
    24    17    13   ar
    25     9     4    1
    26    22    24    1
    27    23    25    1
@<TRIPOS>MOLECULE
*****
 25 27 0 0 0
SMALL
GASTEIGER

@<TRIPOS>ATOM
      1 C         139.6584  139.8609  167.2589 C.ar    1  UNL1       -0.0001
      2 C         138.3998  139.0845  167.0073 C.ar    1  UNL1       -0.0003
      3 C         138.1245  138.5238  165.6435 C.ar    1  UNL1       -0.0031
      4 C         139.1076  138.7394  164.5314 C.ar    1  UNL1       -0.0071
      5 C         140.3661  139.5158  164.7830 C.ar    1  UNL1       -0.0071
      6 C         140.6415  140.0765  166.1467 C.ar    1  UNL1       -0.0031
      7 C         141.1438  139.5662  163.5012 C.3     1  UNL1        0.1222
      8 N         140.3658  138.8210  162.4575 N.3     1  UNL1       -0.1462
      9 C         139.1073  138.3100  163.0942 C.3     1  UNL1        0.1222
     10 S         140.7744  138.6217  161.0280 S.O2    1  UNL1        0.0696
     11 O         139.3730  138.9224  160.5855 O.2     1  UNL1       -0.1523
     12 O         142.1757  138.3210  161.4705 O.2     1  UNL1       -0.1523
     13 C         141.1830  138.4224  159.5986 C.ar    1  UNL1        0.1517
     14 C         142.5601  138.0753  159.1156 C.ar    1  UNL1        0.0271
     15 C         142.5145  137.9736  157.6196 C.ar    1  UNL1        0.0089
     16 C         141.1094  138.2579  157.1783 C.ar    1  UNL1        0.0368
     17 S         140.2865  138.5353  158.4014 S.2     1  UNL1       -0.0668
     18 C         140.4086  141.8368  168.7697 C.2     1  UNL1        0.0598
     19 C         139.9338  140.4216  168.6226 C.2     1  UNL1        0.0047
     20 O         139.8098  143.4825  170.6888 O.2     1  UNL1       -0.2681
     21 C         140.6840  142.3976  170.1334 C.2     1  UNL1        0.2679
     22 N         141.8337  141.8733  170.9418 N.am    1  UNL1       -0.1934
     23 O         142.1091  142.4340  172.3055 O.3     1  UNL1       -0.2949
     24 H         142.4075  141.1611  170.5773 H       1  UNL1        0.1825
     25 H         141.4561  143.1213  172.5104 H       1  UNL1        0.2414
@<TRIPOS>BOND
     1    20    21    2
     2    21    18    1
     3    18    19    2
     4    19     1    1
     5     1     2   ar
     6     2     3   ar
     7     3     4   ar
     8     4     5   ar
     9     5     6   ar
    10     5     7    1
    11     7     8    1
    12     8    10    1
    13    10    11    2
    14    10    12    2
    15    10    13    1
    16    13    14   ar
    17    14    15   ar
    18    15    16   ar
    19    16    17   ar
    20     8     9    1
    21    21    22   am
    22    22    23    1
    23     6     1   ar
    24    17    13   ar
    25     9     4    1
    26    22    24    1
    27    23    25    1
@<TRIPOS>MOLECULE
*****
 25 27 0 0 0
SMALL
GASTEIGER

@<TRIPOS>ATOM
      1 C         139.6167  140.2737  167.2126 C.ar    1  UNL1       -0.0001
      2 C         138.5986  139.1721  167.2140 C.ar    1  UNL1       -0.0003
      3 C         138.0949  138.6148  165.9157 C.ar    1  UNL1       -0.0031
      4 C         138.6092  139.1589  164.6160 C.ar    1  UNL1       -0.0071
      5 C         139.6273  140.2605  164.6146 C.ar    1  UNL1       -0.0071
      6 C         140.1311  140.8178  165.9129 C.ar    1  UNL1       -0.0031
      7 C         139.9478  140.5937  163.1876 C.3     1  UNL1        0.1222
      8 N         139.1278  139.6980  162.3071 N.3     1  UNL1       -0.1462
      9 C         138.3005  138.8113  163.1899 C.3     1  UNL1        0.1222
     10 S         139.1339  139.6904  160.8071 S.O2    1  UNL1        0.0696
     11 O         140.6338  139.6709  160.8133 O.2     1  UNL1       -0.1523
     12 O         137.6341  139.7098  160.8009 O.2     1  UNL1       -0.1523
     13 C         139.1400  139.6827  159.3071 C.ar    1  UNL1        0.1517
     14 C         139.7966  138.6554  158.4334 C.ar    1  UNL1        0.0271
     15 C         139.5529  139.0388  157.0038 C.ar    1  UNL1        0.0089
     16 C         138.7458  140.3031  156.9941 C.ar    1  UNL1        0.0368
     17 S         138.4906  140.7010  158.4176 S.2     1  UNL1       -0.0668
     18 C         140.5720  142.2593  168.5891 C.2     1  UNL1        0.0598
     19 C         140.1205  140.8311  168.5109 C.2     1  UNL1        0.0047
     20 O         140.8737  144.2677  170.2093 O.2     1  UNL1       -0.2681
     21 C         141.0757  142.8167  169.8874 C.2     1  UNL1        0.2679
     22 N         141.7815  141.9230  170.8637 N.am    1  UNL1       -0.1934
     23 O         142.2852  142.4804  172.1620 O.3     1  UNL1       -0.2949
     24 H         141.9141  140.9706  170.6524 H       1  UNL1        0.1825
     25 H         142.0743  143.4258  172.2115 H       1  UNL1        0.2414
@<TRIPOS>BOND
     1    20    21    2
     2    21    18    1
     3    18    19    2
     4    19     1    1
     5     1     2   ar
     6     2     3   ar
     7     3     4   ar
     8     4     5   ar
     9     5     6   ar
    10     5     7    1
    11     7     8    1
    12     8    10    1
    13    10    11    2
    14    10    12    2
    15    10    13    1
    16    13    14   ar
    17    14    15   ar
    18    15    16   ar
    19    16    17   ar
    20     8     9    1
    21    21    22   am
    22    22    23    1
    23     6     1   ar
    24    17    13   ar
    25     9     4    1
    26    22    24    1
    27    23    25    1
@<TRIPOS>MOLECULE
*****
 25 27 0 0 0
SMALL
GASTEIGER

@<TRIPOS>ATOM
      1 C         137.8702  139.4861  161.5074 C.ar    1  UNL1       -0.0001
      2 C         138.2227  138.0595  161.8080 C.ar    1  UNL1       -0.0003
      3 C         138.7598  137.6881  163.1584 C.ar    1  UNL1       -0.0031
      4 C         138.9444  138.7434  164.2082 C.ar    1  UNL1       -0.0071
      5 C         138.5920  140.1700  163.9077 C.ar    1  UNL1       -0.0071
      6 C         138.0549  140.5414  162.5573 C.ar    1  UNL1       -0.0031
      7 C         138.8794  140.9865  165.1328 C.3     1  UNL1        0.1222
      8 N         139.4094  140.0644  166.1905 N.3     1  UNL1       -0.1462
      9 C         139.4497  138.6781  165.6191 C.3     1  UNL1        0.1222
     10 S         139.8262  140.4593  167.5763 S.O2    1  UNL1        0.0696
     11 O         138.8755  139.4505  168.1496 O.2     1  UNL1       -0.1523
     12 O         140.7768  141.4680  167.0030 O.2     1  UNL1       -0.1523
     13 C         140.2429  140.8542  168.9621 C.ar    1  UNL1        0.1517
     14 C         139.9698  142.1729  169.6227 C.ar    1  UNL1        0.0271
     15 C         140.5641  142.1334  170.9995 C.ar    1  UNL1        0.0089
     16 C         141.2044  140.7903  171.1896 C.ar    1  UNL1        0.0368
     17 S         141.0059  139.9998  169.9304 S.2     1  UNL1       -0.0668
     18 C         138.1732  140.6638  159.2115 C.2     1  UNL1        0.0598
     19 C         137.3331  139.8575  160.1570 C.2     1  UNL1        0.0047
     20 O         137.5341  139.9972  156.7832 O.2     1  UNL1       -0.2681
     21 C         137.6361  141.0352  157.8611 C.2     1  UNL1        0.2679
     22 N         137.2009  142.4447  157.5888 N.am    1  UNL1       -0.1934
     23 O         136.6638  142.8161  156.2383 O.3     1  UNL1       -0.2949
     24 H         137.2679  143.1260  158.2963 H       1  UNL1        0.1825
     25 H         136.6653  142.0346  155.6637 H       1  UNL1        0.2414
@<TRIPOS>BOND
     1    20    21    2
     2    21    18    1
     3    18    19    2
     4    19     1    1
     5     1     2   ar
     6     2     3   ar
     7     3     4   ar
     8     4     5   ar
     9     5     6   ar
    10     5     7    1
    11     7     8    1
    12     8    10    1
    13    10    11    2
    14    10    12    2
    15    10    13    1
    16    13    14   ar
    17    14    15   ar
    18    15    16   ar
    19    16    17   ar
    20     8     9    1
    21    21    22   am
    22    22    23    1
    23     6     1   ar
    24    17    13   ar
    25     9     4    1
    26    22    24    1
    27    23    25    1
@<TRIPOS>MOLECULE
*****
 25 27 0 0 0
SMALL
GASTEIGER

@<TRIPOS>ATOM
      1 C         143.0281  142.6209  166.5400 C.ar    1  UNL1       -0.0001
      2 C         144.3330  143.2176  166.1029 C.ar    1  UNL1       -0.0003
      3 C         144.4847  143.7502  164.7088 C.ar    1  UNL1       -0.0031
      4 C         143.3314  143.6860  163.7519 C.ar    1  UNL1       -0.0071
      5 C         142.0265  143.0893  164.1890 C.ar    1  UNL1       -0.0071
      6 C         141.8749  142.5567  165.5830 C.ar    1  UNL1       -0.0031
      7 C         141.0732  143.1620  163.0331 C.3     1  UNL1        0.1222
      8 N         141.7890  143.8038  161.8816 N.3     1  UNL1       -0.1462
      9 C         143.1846  144.1276  162.3259 C.3     1  UNL1        0.1222
     10 S         141.2107  144.0742  160.5242 S.O2    1  UNL1        0.0696
     11 O         142.5917  144.0888  159.9388 O.2     1  UNL1       -0.1523
     12 O         139.8298  144.0596  161.1097 O.2     1  UNL1       -0.1523
     13 C         140.6324  144.3446  159.1669 C.ar    1  UNL1        0.1517
     14 C         140.7234  145.6373  158.4114 C.ar    1  UNL1        0.0271
     15 C         140.0088  145.4614  157.1043 C.ar    1  UNL1        0.0089
     16 C         139.4761  144.0602  157.0520 C.ar    1  UNL1        0.0368
     17 S         139.8616  143.3700  158.3268 S.2     1  UNL1       -0.0668
     18 C         141.7362  141.1725  168.2671 C.2     1  UNL1        0.0598
     19 C         142.8765  142.0883  167.9340 C.2     1  UNL1        0.0047
     20 O         140.5684  139.5753  169.9509 O.2     1  UNL1       -0.2681
     21 C         141.5846  140.6399  169.6612 C.2     1  UNL1        0.2679
     22 N         142.4491  141.1720  170.7655 N.am    1  UNL1       -0.1934
     23 O         142.2975  140.6395  172.1595 O.3     1  UNL1       -0.2949
     24 H         143.1160  141.8708  170.5753 H       1  UNL1        0.1825
     25 H         141.6028  139.9626  172.1733 H       1  UNL1        0.2414
@<TRIPOS>BOND
     1    20    21    2
     2    21    18    1
     3    18    19    2
     4    19     1    1
     5     1     2   ar
     6     2     3   ar
     7     3     4   ar
     8     4     5   ar
     9     5     6   ar
    10     5     7    1
    11     7     8    1
    12     8    10    1
    13    10    11    2
    14    10    12    2
    15    10    13    1
    16    13    14   ar
    17    14    15   ar
    18    15    16   ar
    19    16    17   ar
    20     8     9    1
    21    21    22   am
    22    22    23    1
    23     6     1   ar
    24    17    13   ar
    25     9     4    1
    26    22    24    1
    27    23    25    1
@<TRIPOS>MOLECULE
*****
 25 27 0 0 0
SMALL
GASTEIGER

@<TRIPOS>ATOM
      1 C         143.5376  142.1450  169.6310 C.ar    1  UNL1       -0.0001
      2 C         143.1708  140.8062  170.1993 C.ar    1  UNL1       -0.0003
      3 C         142.5399  139.7661  169.3216 C.ar    1  UNL1       -0.0031
      4 C         142.2759  140.0649  167.8756 C.ar    1  UNL1       -0.0071
      5 C         142.6427  141.4037  167.3073 C.ar    1  UNL1       -0.0071
      6 C         143.2735  142.4437  168.1850 C.ar    1  UNL1       -0.0031
      7 C         142.2646  141.4104  165.8557 C.3     1  UNL1        0.1222
      8 N         141.6642  140.0758  165.5269 N.3     1  UNL1       -0.1462
      9 C         141.6712  139.2442  166.7753 C.3     1  UNL1        0.1222
     10 S         141.1475  139.6478  164.1853 S.O2    1  UNL1        0.0696
     11 O         141.8241  140.8257  163.5489 O.2     1  UNL1       -0.1523
     12 O         140.4710  138.4699  164.8216 O.2     1  UNL1       -0.1523
     13 C         140.6308  139.2197  162.8437 C.ar    1  UNL1        0.1517
     14 C         139.4339  138.3501  162.5965 C.ar    1  UNL1        0.0271
     15 C         139.2837  138.1791  161.1138 C.ar    1  UNL1        0.0089
     16 C         140.3877  138.9430  160.4448 C.ar    1  UNL1        0.0368
     17 S         141.2202  139.5861  161.5140 S.2     1  UNL1       -0.0668
     18 C         145.5815  143.6211  170.2580 C.2     1  UNL1        0.0598
     19 C         144.1684  143.1850  170.5087 C.2     1  UNL1        0.0047
     20 O         145.4472  145.8983  171.5015 O.2     1  UNL1       -0.2681
     21 C         146.2124  144.6611  171.1357 C.2     1  UNL1        0.2679
     22 N         147.6085  144.4640  171.6476 N.am    1  UNL1       -0.1934
     23 O         148.2394  145.5040  172.5253 O.3     1  UNL1       -0.2949
     24 H         148.1108  143.6520  171.4075 H       1  UNL1        0.1825
     25 H         147.6146  146.2331  172.6631 H       1  UNL1        0.2414
@<TRIPOS>BOND
     1    20    21    2
     2    21    18    1
     3    18    19    2
     4    19     1    1
     5     1     2   ar
     6     2     3   ar
     7     3     4   ar
     8     4     5   ar
     9     5     6   ar
    10     5     7    1
    11     7     8    1
    12     8    10    1
    13    10    11    2
    14    10    12    2
    15    10    13    1
    16    13    14   ar
    17    14    15   ar
    18    15    16   ar
    19    16    17   ar
    20     8     9    1
    21    21    22   am
    22    22    23    1
    23     6     1   ar
    24    17    13   ar
    25     9     4    1
    26    22    24    1
    27    23    25    1
