@<TRIPOS>MOLECULE
*****
 34 38 0 0 0
SMALL
GASTEIGER

@<TRIPOS>ATOM
      1 N         141.1800  144.7250  162.9453 N.3     1  UNL1       -0.2726
      2 C         142.6562  144.6737  162.6839 C.3     1  UNL1        0.0721
      3 C         143.7224  143.9762  163.4755 C.3     1  UNL1        0.0177
      4 C         143.5759  143.1577  164.7240 C.3     1  UNL1        0.0055
      5 C         143.6517  142.3128  165.9610 C.3     1  UNL1        0.0045
      6 C         142.3269  142.8346  165.4892 C.3     1  UNL1        0.0203
      7 C         140.9160  143.2502  165.1950 C.3     1  UNL1        0.0214
      8 C         140.4055  144.0914  164.0629 C.3     1  UNL1        0.0724
      9 C         141.7505  142.1231  166.6773 C.ar    1  UNL1       -0.0228
     10 C         140.7232  142.8032  167.5330 C.ar    1  UNL1       -0.0043
     11 C         140.1467  142.0916  168.7211 C.ar    1  UNL1        0.0035
     12 C         140.5975  140.7001  169.0533 C.ar    1  UNL1        0.0714
     13 C         141.6248  140.0200  168.1976 C.ar    1  UNL1        0.0035
     14 C         142.2013  140.7316  167.0096 C.ar    1  UNL1       -0.0043
     15 C         140.0211  139.9886  170.2413 C.3     1  UNL1        0.4186
     16 F         139.4447  139.2769  171.4294 F       1  UNL1       -0.1659
     17 F         141.2412  139.1187  170.3123 F       1  UNL1       -0.1659
     18 F         138.8011  140.8583  170.1705 F       1  UNL1       -0.1659
     19 C         140.3714  145.5141  161.9587 C.3     1  UNL1        0.0730
     20 C         140.6980  145.4461  160.4963 C.3     1  UNL1        0.0294
     21 C         139.9705  144.4796  159.6095 C.3     1  UNL1        0.0666
     22 S         140.0475  143.0067  159.8831 S.3     1  UNL1       -0.0756
     23 C         138.5235  141.0815  162.8891 C.ar    1  UNL1        0.2029
     24 N         137.3340  141.8599  162.4103 N.ar    1  UNL1       -0.1250
     25 N         137.7601  142.6758  161.2260 N.ar    1  UNL1       -0.1220
     26 C         139.2130  142.4017  160.9728 C.ar    1  UNL1        0.1933
     27 N         139.6847  141.4163  162.0007 N.ar    1  UNL1       -0.2860
     28 C         141.0739  140.8630  162.1192 C.3     1  UNL1        0.1341
     29 C         138.8196  137.8362  162.7145 C.3     1  UNL1        0.0556
     30 C         138.6836  138.6428  163.9719 C.ar    1  UNL1        0.1001
     31 N         138.6598  138.0993  165.3698 N.ar    1  UNL1       -0.2085
     32 C         138.5090  139.2550  166.3139 C.ar    1  UNL1        0.2849
     33 O         138.4396  140.5128  165.4996 O.2     1  UNL1       -0.4283
     34 C         138.5475  140.1344  164.0521 C.ar    1  UNL1        0.1964
@<TRIPOS>BOND
     1    29    30    1
     2    30    31   ar
     3    31    32   ar
     4    32    33   ar
     5    33    34   ar
     6    34    23    1
     7    23    24   ar
     8    24    25   ar
     9    25    26   ar
    10    26    22    1
    11    22    21    1
    12    21    20    1
    13    20    19    1
    14    19     1    1
    15     1     2    1
    16     2     3    1
    17     3     4    1
    18     4     5    1
    19     5     6    1
    20     6     9    1
    21     9    10   ar
    22    10    11   ar
    23    11    12   ar
    24    12    15    1
    25    15    16    1
    26    15    17    1
    27    15    18    1
    28    12    13   ar
    29    13    14   ar
    30     6     7    1
    31     7     8    1
    32    26    27   ar
    33    27    28    1
    34    34    30   ar
    35    27    23   ar
    36     8     1    1
    37     6     4    1
    38    14     9   ar
@<TRIPOS>MOLECULE
*****
 34 38 0 0 0
SMALL
GASTEIGER

@<TRIPOS>ATOM
      1 N         143.9074  139.5978  162.9762 N.3     1  UNL1       -0.2726
      2 C         144.9770  140.5773  162.5935 C.3     1  UNL1        0.0721
      3 C         145.3345  141.8765  163.2525 C.3     1  UNL1        0.0177
      4 C         144.7108  142.5171  164.4570 C.3     1  UNL1        0.0055
      5 C         144.2363  143.3219  165.6304 C.3     1  UNL1        0.0045
      6 C         143.5754  142.0166  165.2999 C.3     1  UNL1        0.0203
      7 C         142.7834  140.7520  165.1465 C.3     1  UNL1        0.0214
      8 C         142.9311  139.6755  164.1124 C.3     1  UNL1        0.0724
      9 C         142.6980  142.2894  166.4856 C.ar    1  UNL1       -0.0228
     10 C         143.2883  142.3203  167.8641 C.ar    1  UNL1       -0.0043
     11 C         142.4108  142.5931  169.0498 C.ar    1  UNL1        0.0035
     12 C         140.9431  142.8350  168.8567 C.ar    1  UNL1        0.0714
     13 C         140.3528  142.8042  167.4780 C.ar    1  UNL1        0.0035
     14 C         141.2302  142.5314  166.2925 C.ar    1  UNL1       -0.0043
     15 C         140.0656  143.1078  170.0423 C.3     1  UNL1        0.4186
     16 F         139.1881  143.3807  171.2279 F       1  UNL1       -0.1659
     17 F         140.5878  144.5126  170.1054 F       1  UNL1       -0.1659
     18 F         139.5434  141.7031  169.9792 F       1  UNL1       -0.1659
     19 C         143.7997  138.3794  162.1079 C.3     1  UNL1        0.0730
     20 C         143.7630  138.5231  160.6153 C.3     1  UNL1        0.0294
     21 C         142.6274  137.9333  159.8327 C.3     1  UNL1        0.0666
     22 S         141.3805  138.7343  159.6008 S.3     1  UNL1       -0.0756
     23 C         140.4261  141.5529  162.0926 C.ar    1  UNL1        0.2029
     24 N         139.6145  140.4090  162.6243 N.ar    1  UNL1       -0.1250
     25 N         139.8733  139.2139  161.7556 N.ar    1  UNL1       -0.1220
     26 C         140.8447  139.6192  160.6870 C.ar    1  UNL1        0.1933
     27 N         141.1864  141.0649  160.8953 N.ar    1  UNL1       -0.2860
     28 C         142.1238  141.8794  160.0539 C.3     1  UNL1        0.1341
     29 C         137.8429  143.4095  162.8208 C.3     1  UNL1        0.0556
     30 C         139.2823  143.7947  162.9936 C.ar    1  UNL1        0.1001
     31 N         139.7871  145.1008  163.5314 N.ar    1  UNL1       -0.2085
     32 C         141.2863  145.0547  163.5290 C.ar    1  UNL1        0.2849
     33 O         141.7082  143.7201  162.9898 O.2     1  UNL1       -0.4283
     34 C         140.4696  142.9414  162.6588 C.ar    1  UNL1        0.1964
@<TRIPOS>BOND
     1    29    30    1
     2    30    31   ar
     3    31    32   ar
     4    32    33   ar
     5    33    34   ar
     6    34    23    1
     7    23    24   ar
     8    24    25   ar
     9    25    26   ar
    10    26    22    1
    11    22    21    1
    12    21    20    1
    13    20    19    1
    14    19     1    1
    15     1     2    1
    16     2     3    1
    17     3     4    1
    18     4     5    1
    19     5     6    1
    20     6     9    1
    21     9    10   ar
    22    10    11   ar
    23    11    12   ar
    24    12    15    1
    25    15    16    1
    26    15    17    1
    27    15    18    1
    28    12    13   ar
    29    13    14   ar
    30     6     7    1
    31     7     8    1
    32    26    27   ar
    33    27    28    1
    34    34    30   ar
    35    27    23   ar
    36     8     1    1
    37     6     4    1
    38    14     9   ar
@<TRIPOS>MOLECULE
*****
 34 38 0 0 0
SMALL
GASTEIGER

@<TRIPOS>ATOM
      1 N         139.3250  138.7676  163.4598 N.3     1  UNL1       -0.2726
      2 C         140.1890  137.5758  163.1713 C.3     1  UNL1        0.0721
      3 C         141.4627  137.1590  163.8452 C.3     1  UNL1        0.0177
      4 C         142.1870  137.8310  164.9738 C.3     1  UNL1        0.0055
      5 C         143.0599  138.3362  166.0841 C.3     1  UNL1        0.0045
      6 C         141.8165  139.0859  165.7073 C.3     1  UNL1        0.0203
      7 C         140.6302  139.9786  165.4934 C.3     1  UNL1        0.0214
      8 C         139.5213  139.8370  164.4932 C.3     1  UNL1        0.0724
      9 C         142.1987  140.0432  166.7971 C.ar    1  UNL1       -0.0228
     10 C         142.1209  139.6152  168.2326 C.ar    1  UNL1       -0.0043
     11 C         142.5031  140.5726  169.3224 C.ar    1  UNL1        0.0035
     12 C         142.9630  141.9578  168.9765 C.ar    1  UNL1        0.0714
     13 C         143.0408  142.3858  167.5409 C.ar    1  UNL1        0.0035
     14 C         142.6586  141.4284  166.4513 C.ar    1  UNL1       -0.0043
     15 C         143.3452  142.9151  170.0662 C.3     1  UNL1        0.4186
     16 F         143.7274  143.8725  171.1559 F       1  UNL1       -0.1659
     17 F         141.9386  143.4349  170.1028 F       1  UNL1       -0.1659
     18 F         144.7518  142.3953  170.0297 F       1  UNL1       -0.1659
     19 C         138.1031  138.9087  162.6012 C.3     1  UNL1        0.0730
     20 C         138.2432  139.0457  161.1141 C.3     1  UNL1        0.0294
     21 C         137.7945  140.3036  160.4312 C.3     1  UNL1        0.0666
     22 S         138.7955  141.3641  160.0796 S.3     1  UNL1       -0.0756
     23 C         141.8636  141.9758  162.3770 C.ar    1  UNL1        0.2029
     24 N         140.8872  142.9738  162.9254 N.ar    1  UNL1       -0.1250
     25 N         139.6191  142.8661  162.1316 N.ar    1  UNL1       -0.1220
     26 C         139.8117  141.8016  161.0925 C.ar    1  UNL1        0.1933
     27 N         141.1989  141.2514  161.2442 N.ar    1  UNL1       -0.2860
     28 C         141.8134  140.1670  160.4095 C.3     1  UNL1        0.1341
     29 C         144.1564  144.2600  162.7956 C.3     1  UNL1        0.0556
     30 C         144.3135  142.7931  163.0665 C.ar    1  UNL1        0.1001
     31 N         145.5520  142.1185  163.5774 N.ar    1  UNL1       -0.2085
     32 C         145.2636  140.6518  163.7007 C.ar    1  UNL1        0.2849
     33 O         143.8468  140.4197  163.2661 O.2     1  UNL1       -0.4283
     34 C         143.2596  141.7432  162.8741 C.ar    1  UNL1        0.1964
@<TRIPOS>BOND
     1    29    30    1
     2    30    31   ar
     3    31    32   ar
     4    32    33   ar
     5    33    34   ar
     6    34    23    1
     7    23    24   ar
     8    24    25   ar
     9    25    26   ar
    10    26    22    1
    11    22    21    1
    12    21    20    1
    13    20    19    1
    14    19     1    1
    15     1     2    1
    16     2     3    1
    17     3     4    1
    18     4     5    1
    19     5     6    1
    20     6     9    1
    21     9    10   ar
    22    10    11   ar
    23    11    12   ar
    24    12    15    1
    25    15    16    1
    26    15    17    1
    27    15    18    1
    28    12    13   ar
    29    13    14   ar
    30     6     7    1
    31     7     8    1
    32    26    27   ar
    33    27    28    1
    34    34    30   ar
    35    27    23   ar
    36     8     1    1
    37     6     4    1
    38    14     9   ar
@<TRIPOS>MOLECULE
*****
 34 38 0 0 0
SMALL
GASTEIGER

@<TRIPOS>ATOM
      1 N         139.3588  138.8452  163.5567 N.3     1  UNL1       -0.2726
      2 C         140.2118  137.6476  163.2597 C.3     1  UNL1        0.0721
      3 C         141.4897  137.2227  163.9201 C.3     1  UNL1        0.0177
      4 C         142.2305  137.8904  165.0407 C.3     1  UNL1        0.0055
      5 C         143.1184  138.3903  166.1414 C.3     1  UNL1        0.0045
      6 C         141.8760  139.1479  165.7776 C.3     1  UNL1        0.0203
      7 C         140.6934  140.0483  165.5758 C.3     1  UNL1        0.0214
      8 C         139.5731  139.9137  164.5875 C.3     1  UNL1        0.0724
      9 C         142.2761  140.1032  166.8628 C.ar    1  UNL1       -0.0228
     10 C         142.6521  141.5139  166.5189 C.ar    1  UNL1       -0.0043
     11 C         143.0522  142.4692  167.6041 C.ar    1  UNL1        0.0035
     12 C         143.0761  142.0135  169.0330 C.ar    1  UNL1        0.0714
     13 C         142.7001  140.6026  169.3769 C.ar    1  UNL1        0.0035
     14 C         142.3001  139.6475  168.2917 C.ar    1  UNL1       -0.0043
     15 C         143.4761  142.9687  170.1182 C.3     1  UNL1        0.4186
     16 F         143.8762  143.9238  171.2035 F       1  UNL1       -0.1659
     17 F         144.8550  142.3781  170.1297 F       1  UNL1       -0.1659
     18 F         142.0974  143.5593  170.1068 F       1  UNL1       -0.1659
     19 C         138.1288  138.9940  162.7111 C.3     1  UNL1        0.0730
     20 C         138.1202  138.4786  161.3026 C.3     1  UNL1        0.0294
     21 C         138.9333  139.1672  160.2469 C.3     1  UNL1        0.0666
     22 S         138.5115  140.5121  159.7336 S.3     1  UNL1       -0.0756
     23 C         140.4373  143.3156  161.6037 C.ar    1  UNL1        0.2029
     24 N         139.1921  144.0439  161.1926 N.ar    1  UNL1       -0.1250
     25 N         138.3192  143.0824  160.4420 N.ar    1  UNL1       -0.1220
     26 C         139.0248  141.7598  160.3893 C.ar    1  UNL1        0.1933
     27 N         140.3339  141.9040  161.1072 N.ar    1  UNL1       -0.2860
     28 C         141.3595  140.8257  161.2956 C.3     1  UNL1        0.1341
     29 C         140.5205  143.8205  164.8267 C.3     1  UNL1        0.0556
     30 C         141.6227  144.1290  163.8572 C.ar    1  UNL1        0.1001
     31 N         142.9567  144.7237  164.1989 N.ar    1  UNL1       -0.2085
     32 C         143.7429  144.8592  162.9288 C.ar    1  UNL1        0.2849
     33 O         142.8949  144.3482  161.8020 O.2     1  UNL1       -0.4283
     34 C         141.5845  143.8969  162.3758 C.ar    1  UNL1        0.1964
@<TRIPOS>BOND
     1    29    30    1
     2    30    31   ar
     3    31    32   ar
     4    32    33   ar
     5    33    34   ar
     6    34    23    1
     7    23    24   ar
     8    24    25   ar
     9    25    26   ar
    10    26    22    1
    11    22    21    1
    12    21    20    1
    13    20    19    1
    14    19     1    1
    15     1     2    1
    16     2     3    1
    17     3     4    1
    18     4     5    1
    19     5     6    1
    20     6     9    1
    21     9    10   ar
    22    10    11   ar
    23    11    12   ar
    24    12    15    1
    25    15    16    1
    26    15    17    1
    27    15    18    1
    28    12    13   ar
    29    13    14   ar
    30     6     7    1
    31     7     8    1
    32    26    27   ar
    33    27    28    1
    34    34    30   ar
    35    27    23   ar
    36     8     1    1
    37     6     4    1
    38    14     9   ar
@<TRIPOS>MOLECULE
*****
 34 38 0 0 0
SMALL
GASTEIGER

@<TRIPOS>ATOM
      1 N         138.8872  144.0026  163.4612 N.3     1  UNL1       -0.2726
      2 C         137.8469  143.0419  162.9662 C.3     1  UNL1        0.0721
      3 C         137.5254  141.6679  163.4748 C.3     1  UNL1        0.0177
      4 C         138.1648  140.9151  164.6038 C.3     1  UNL1        0.0055
      5 C         138.6597  139.9984  165.6829 C.3     1  UNL1        0.0045
      6 C         139.2836  141.3506  165.5031 C.3     1  UNL1        0.0203
      7 C         140.0393  142.6463  165.4955 C.3     1  UNL1        0.0214
      8 C         139.8629  143.8266  164.5868 C.3     1  UNL1        0.0724
      9 C         140.1661  140.9724  166.6556 C.ar    1  UNL1       -0.0228
     10 C         141.6412  141.2356  166.5885 C.ar    1  UNL1       -0.0043
     11 C         142.5237  140.8574  167.7410 C.ar    1  UNL1        0.0035
     12 C         141.9310  140.2160  168.9606 C.ar    1  UNL1        0.0714
     13 C         140.4557  139.9528  169.0277 C.ar    1  UNL1        0.0035
     14 C         139.5733  140.3310  167.8752 C.ar    1  UNL1       -0.0043
     15 C         142.8134  139.8378  170.1131 C.3     1  UNL1        0.4186
     16 F         143.6958  139.4596  171.2656 F       1  UNL1       -0.1659
     17 F         142.0629  138.5479  170.2643 F       1  UNL1       -0.1659
     18 F         143.5639  141.1278  169.9619 F       1  UNL1       -0.1659
     19 C         138.9616  145.3127  162.7343 C.3     1  UNL1        0.0730
     20 C         140.2443  145.7372  162.0829 C.3     1  UNL1        0.0294
     21 C         140.5584  145.2932  160.6850 C.3     1  UNL1        0.0666
     22 S         141.6479  144.2908  160.4434 S.3     1  UNL1       -0.0756
     23 C         141.5600  140.9746  162.4583 C.ar    1  UNL1        0.2029
     24 N         142.6285  141.7306  163.1909 N.ar    1  UNL1       -0.1250
     25 N         142.7915  143.0648  162.5253 N.ar    1  UNL1       -0.1220
     26 C         141.8237  143.1335  161.3813 C.ar    1  UNL1        0.1933
     27 N         141.0626  141.8416  161.3399 N.ar    1  UNL1       -0.2860
     28 C         139.9920  141.4802  160.3533 C.3     1  UNL1        0.1341
     29 C         143.1220  138.7784  164.2985 C.3     1  UNL1        0.0556
     30 C         141.7921  138.5844  163.6324 C.ar    1  UNL1        0.1001
     31 N         140.9467  137.3469  163.6951 N.ar    1  UNL1       -0.2085
     32 C         139.7063  137.5915  162.8880 C.ar    1  UNL1        0.2849
     33 O         139.7850  138.9802  162.3265 O.2     1  UNL1       -0.4283
     34 C         141.0741  139.5938  162.7865 C.ar    1  UNL1        0.1964
@<TRIPOS>BOND
     1    29    30    1
     2    30    31   ar
     3    31    32   ar
     4    32    33   ar
     5    33    34   ar
     6    34    23    1
     7    23    24   ar
     8    24    25   ar
     9    25    26   ar
    10    26    22    1
    11    22    21    1
    12    21    20    1
    13    20    19    1
    14    19     1    1
    15     1     2    1
    16     2     3    1
    17     3     4    1
    18     4     5    1
    19     5     6    1
    20     6     9    1
    21     9    10   ar
    22    10    11   ar
    23    11    12   ar
    24    12    15    1
    25    15    16    1
    26    15    17    1
    27    15    18    1
    28    12    13   ar
    29    13    14   ar
    30     6     7    1
    31     7     8    1
    32    26    27   ar
    33    27    28    1
    34    34    30   ar
    35    27    23   ar
    36     8     1    1
    37     6     4    1
    38    14     9   ar
@<TRIPOS>MOLECULE
*****
 34 38 0 0 0
SMALL
GASTEIGER

@<TRIPOS>ATOM
      1 N         141.2490  138.0870  162.8440 N.3     1  UNL1       -0.2726
      2 C         139.8355  137.6093  162.9984 C.3     1  UNL1        0.0721
      3 C         138.8748  137.8774  164.1188 C.3     1  UNL1        0.0177
      4 C         139.0903  138.6895  165.3615 C.3     1  UNL1        0.0055
      5 C         139.0947  139.4470  166.6561 C.3     1  UNL1        0.0045
      6 C         140.3198  139.4340  165.7907 C.3     1  UNL1        0.0203
      7 C         141.6373  139.5503  165.0831 C.3     1  UNL1        0.0214
      8 C         142.0509  138.9509  163.7718 C.3     1  UNL1        0.0724
      9 C         140.9386  140.2998  166.8478 C.ar    1  UNL1       -0.0228
     10 C         140.3844  141.6676  167.1161 C.ar    1  UNL1       -0.0043
     11 C         141.0032  142.5334  168.1732 C.ar    1  UNL1        0.0035
     12 C         142.1761  142.0313  168.9620 C.ar    1  UNL1        0.0714
     13 C         142.7303  140.6634  168.6937 C.ar    1  UNL1        0.0035
     14 C         142.1115  139.7977  167.6366 C.ar    1  UNL1       -0.0043
     15 C         142.7950  142.8970  170.0191 C.3     1  UNL1        0.4186
     16 F         143.4138  143.7628  171.0763 F       1  UNL1       -0.1659
     17 F         141.5541  143.7391  170.0558 F       1  UNL1       -0.1659
     18 F         144.0358  142.0550  169.9825 F       1  UNL1       -0.1659
     19 C         141.9537  137.6421  161.5969 C.3     1  UNL1        0.0730
     20 C         143.3668  138.0743  161.3392 C.3     1  UNL1        0.0294
     21 C         143.6672  139.0287  160.2217 C.3     1  UNL1        0.0666
     22 S         143.4844  140.5036  160.4255 S.3     1  UNL1       -0.0756
     23 C         140.4094  142.2188  162.0587 C.ar    1  UNL1        0.2029
     24 N         139.7701  141.5301  160.8895 N.ar    1  UNL1       -0.1250
     25 N         140.8441  140.8038  160.1354 N.ar    1  UNL1       -0.1220
     26 C         142.1473  141.0436  160.8385 C.ar    1  UNL1        0.1933
     27 N         141.8785  141.9181  162.0272 N.ar    1  UNL1       -0.2860
     28 C         142.8998  142.4062  163.0115 C.3     1  UNL1        0.1341
     29 C         137.6338  141.4482  163.5923 C.3     1  UNL1        0.0556
     30 C         138.4276  142.7063  163.7851 C.ar    1  UNL1        0.1001
     31 N         138.0850  143.8310  164.7164 N.ar    1  UNL1       -0.2085
     32 C         139.1490  144.8803  164.5872 C.ar    1  UNL1        0.2849
     33 O         140.1492  144.4042  163.5759 O.2     1  UNL1       -0.4283
     34 C         139.7034  143.0605  163.0801 C.ar    1  UNL1        0.1964
@<TRIPOS>BOND
     1    29    30    1
     2    30    31   ar
     3    31    32   ar
     4    32    33   ar
     5    33    34   ar
     6    34    23    1
     7    23    24   ar
     8    24    25   ar
     9    25    26   ar
    10    26    22    1
    11    22    21    1
    12    21    20    1
    13    20    19    1
    14    19     1    1
    15     1     2    1
    16     2     3    1
    17     3     4    1
    18     4     5    1
    19     5     6    1
    20     6     9    1
    21     9    10   ar
    22    10    11   ar
    23    11    12   ar
    24    12    15    1
    25    15    16    1
    26    15    17    1
    27    15    18    1
    28    12    13   ar
    29    13    14   ar
    30     6     7    1
    31     7     8    1
    32    26    27   ar
    33    27    28    1
    34    34    30   ar
    35    27    23   ar
    36     8     1    1
    37     6     4    1
    38    14     9   ar
@<TRIPOS>MOLECULE
*****
 34 38 0 0 0
SMALL
GASTEIGER

@<TRIPOS>ATOM
      1 N         138.1887  140.5368  162.6497 N.3     1  UNL1       -0.2726
      2 C         137.8160  141.9838  162.5178 C.3     1  UNL1        0.0721
      3 C         138.1461  143.1220  163.4373 C.3     1  UNL1        0.0177
      4 C         138.9304  143.0945  164.7157 C.3     1  UNL1        0.0055
      5 C         139.6756  143.2875  166.0031 C.3     1  UNL1        0.0045
      6 C         139.5783  141.9218  165.3903 C.3     1  UNL1        0.0203
      7 C         139.6019  140.4871  164.9531 C.3     1  UNL1        0.0214
      8 C         138.9835  139.8707  163.7335 C.3     1  UNL1        0.0724
      9 C         140.3876  141.4598  166.5657 C.ar    1  UNL1       -0.0228
     10 C         139.8171  140.4527  167.5197 C.ar    1  UNL1       -0.0043
     11 C         140.6265  139.9907  168.6951 C.ar    1  UNL1        0.0035
     12 C         142.0063  140.5359  168.9165 C.ar    1  UNL1        0.0714
     13 C         142.5767  141.5431  167.9624 C.ar    1  UNL1        0.0035
     14 C         141.7674  142.0051  166.7871 C.ar    1  UNL1       -0.0043
     15 C         142.8156  140.0739  170.0918 C.3     1  UNL1        0.4186
     16 F         143.6251  139.6120  171.2672 F       1  UNL1       -0.1659
     17 F         143.7002  141.2778  169.9558 F       1  UNL1       -0.1659
     18 F         141.9311  138.8701  170.2280 F       1  UNL1       -0.1659
     19 C         137.7023  139.6370  161.5526 C.3     1  UNL1        0.0730
     20 C         138.5517  138.4900  161.0913 C.3     1  UNL1        0.0294
     21 C         139.5430  138.6888  159.9832 C.3     1  UNL1        0.0666
     22 S         141.0100  138.5270  160.2513 S.3     1  UNL1       -0.0756
     23 C         142.4979  141.0824  162.7654 C.ar    1  UNL1        0.2029
     24 N         142.7909  139.7865  163.4617 N.ar    1  UNL1       -0.1250
     25 N         142.2692  138.6716  162.6047 N.ar    1  UNL1       -0.1220
     26 C         141.6537  139.2783  161.3787 C.ar    1  UNL1        0.1933
     27 N         141.7951  140.7683  161.4781 N.ar    1  UNL1       -0.2860
     28 C         141.3175  141.7686  160.4674 C.3     1  UNL1        0.1341
     29 C         145.3913  142.0096  163.9564 C.3     1  UNL1        0.0556
     30 C         144.1764  142.8782  163.8157 C.ar    1  UNL1        0.1001
     31 N         144.0782  144.3253  164.1978 N.ar    1  UNL1       -0.2085
     32 C         142.6876  144.7936  163.8865 C.ar    1  UNL1        0.2849
     33 O         141.9263  143.6358  163.3121 O.2     1  UNL1       -0.4283
     34 C         142.8465  142.4520  163.2683 C.ar    1  UNL1        0.1964
@<TRIPOS>BOND
     1    29    30    1
     2    30    31   ar
     3    31    32   ar
     4    32    33   ar
     5    33    34   ar
     6    34    23    1
     7    23    24   ar
     8    24    25   ar
     9    25    26   ar
    10    26    22    1
    11    22    21    1
    12    21    20    1
    13    20    19    1
    14    19     1    1
    15     1     2    1
    16     2     3    1
    17     3     4    1
    18     4     5    1
    19     5     6    1
    20     6     9    1
    21     9    10   ar
    22    10    11   ar
    23    11    12   ar
    24    12    15    1
    25    15    16    1
    26    15    17    1
    27    15    18    1
    28    12    13   ar
    29    13    14   ar
    30     6     7    1
    31     7     8    1
    32    26    27   ar
    33    27    28    1
    34    34    30   ar
    35    27    23   ar
    36     8     1    1
    37     6     4    1
    38    14     9   ar
@<TRIPOS>MOLECULE
*****
 34 38 0 0 0
SMALL
GASTEIGER

@<TRIPOS>ATOM
      1 N         142.5222  143.7141  161.6237 N.3     1  UNL1       -0.2726
      2 C         143.6887  143.0510  160.9530 C.3     1  UNL1        0.0721
      3 C         144.6344  142.0312  161.5147 C.3     1  UNL1        0.0177
      4 C         144.6475  141.4225  162.8856 C.3     1  UNL1        0.0055
      5 C         144.8391  140.6987  164.1853 C.3     1  UNL1        0.0045
      6 C         143.7179  141.6835  164.0335 C.3     1  UNL1        0.0203
      7 C         142.5457  142.6174  164.0940 C.3     1  UNL1        0.0214
      8 C         142.0135  143.5212  163.0216 C.3     1  UNL1        0.0724
      9 C         143.3768  141.3433  165.4541 C.ar    1  UNL1       -0.0228
     10 C         143.3430  142.4218  166.4961 C.ar    1  UNL1       -0.0043
     11 C         143.0019  142.0817  167.9167 C.ar    1  UNL1        0.0035
     12 C         142.6946  140.6632  168.2952 C.ar    1  UNL1        0.0714
     13 C         142.7283  139.5847  167.2531 C.ar    1  UNL1        0.0035
     14 C         143.0694  139.9248  165.8326 C.ar    1  UNL1       -0.0043
     15 C         142.3534  140.3230  169.7157 C.3     1  UNL1        0.4186
     16 F         142.0123  139.9828  171.1363 F       1  UNL1       -0.1659
     17 F         141.0821  139.6738  169.2549 F       1  UNL1       -0.1659
     18 F         143.6247  140.9722  170.1766 F       1  UNL1       -0.1659
     19 C         141.7643  144.7005  160.7856 C.3     1  UNL1        0.0730
     20 C         140.7954  144.2154  159.7484 C.3     1  UNL1        0.0294
     21 C         139.6220  143.3734  160.1537 C.3     1  UNL1        0.0666
     22 S         139.6920  141.8801  160.0301 S.3     1  UNL1       -0.0756
     23 C         139.7409  139.9252  163.3829 C.ar    1  UNL1        0.2029
     24 N         141.0849  139.5692  162.8202 N.ar    1  UNL1       -0.1250
     25 N         141.2302  140.2581  161.4958 N.ar    1  UNL1       -0.1220
     26 C         139.9760  141.0400  161.2399 C.ar    1  UNL1        0.1933
     27 N         139.0555  140.8342  162.4063 N.ar    1  UNL1       -0.2860
     28 C         137.6894  141.4325  162.5675 C.3     1  UNL1        0.1341
     29 C         139.7108  141.6152  166.1744 C.3     1  UNL1        0.0556
     30 C         139.1667  140.2316  165.9756 C.ar    1  UNL1        0.1001
     31 N         138.5133  139.3819  167.0248 N.ar    1  UNL1       -0.2085
     32 C         138.1233  138.0800  166.3902 C.ar    1  UNL1        0.2849
     33 O         138.5356  138.1250  164.9487 O.2     1  UNL1       -0.4283
     34 C         139.1805  139.4548  164.6924 C.ar    1  UNL1        0.1964
@<TRIPOS>BOND
     1    29    30    1
     2    30    31   ar
     3    31    32   ar
     4    32    33   ar
     5    33    34   ar
     6    34    23    1
     7    23    24   ar
     8    24    25   ar
     9    25    26   ar
    10    26    22    1
    11    22    21    1
    12    21    20    1
    13    20    19    1
    14    19     1    1
    15     1     2    1
    16     2     3    1
    17     3     4    1
    18     4     5    1
    19     5     6    1
    20     6     9    1
    21     9    10   ar
    22    10    11   ar
    23    11    12   ar
    24    12    15    1
    25    15    16    1
    26    15    17    1
    27    15    18    1
    28    12    13   ar
    29    13    14   ar
    30     6     7    1
    31     7     8    1
    32    26    27   ar
    33    27    28    1
    34    34    30   ar
    35    27    23   ar
    36     8     1    1
    37     6     4    1
    38    14     9   ar
@<TRIPOS>MOLECULE
*****
 34 38 0 0 0
SMALL
GASTEIGER

@<TRIPOS>ATOM
      1 N         140.9779  138.5437  161.5673 N.3     1  UNL1       -0.2726
      2 C         142.2919  137.9868  161.1056 C.3     1  UNL1        0.0721
      3 C         143.6337  138.0839  161.7692 C.3     1  UNL1        0.0177
      4 C         143.9928  138.7618  163.0582 C.3     1  UNL1        0.0055
      5 C         144.5610  139.3701  164.3060 C.3     1  UNL1        0.0045
      6 C         143.0988  139.5101  164.0020 C.3     1  UNL1        0.0203
      7 C         141.6249  139.7653  163.8899 C.3     1  UNL1        0.0214
      8 C         140.6810  139.3352  162.8064 C.3     1  UNL1        0.0724
      9 C         143.0205  140.2807  165.2866 C.ar    1  UNL1       -0.0228
     10 C         142.6272  139.5847  166.5558 C.ar    1  UNL1       -0.0043
     11 C         142.5489  140.3553  167.8404 C.ar    1  UNL1        0.0035
     12 C         142.8639  141.8218  167.8557 C.ar    1  UNL1        0.0714
     13 C         143.2572  142.5178  166.5863 C.ar    1  UNL1        0.0035
     14 C         143.3355  141.7472  165.3018 C.ar    1  UNL1       -0.0043
     15 C         142.7856  142.5924  169.1402 C.3     1  UNL1        0.4186
     16 F         142.7073  143.3631  170.4247 F       1  UNL1       -0.1659
     17 F         141.3659  142.9645  168.8303 F       1  UNL1       -0.1659
     18 F         144.2053  142.2204  169.4500 F       1  UNL1       -0.1659
     19 C         139.8056  138.2734  160.6713 C.3     1  UNL1        0.0730
     20 C         138.8549  139.3808  160.3254 C.3     1  UNL1        0.0294
     21 C         138.7799  139.8925  158.9174 C.3     1  UNL1        0.0666
     22 S         139.5551  141.1141  158.5211 S.3     1  UNL1       -0.0756
     23 C         140.8220  143.6403  161.1816 C.ar    1  UNL1        0.2029
     24 N         139.4444  144.1692  160.9126 N.ar    1  UNL1       -0.1250
     25 N         138.8021  143.2873  159.8832 N.ar    1  UNL1       -0.1220
     26 C         139.7828  142.2133  159.5161 C.ar    1  UNL1        0.1933
     27 N         141.0311  142.4315  160.3186 N.ar    1  UNL1       -0.2860
     28 C         142.2710  141.5888  160.2670 C.3     1  UNL1        0.1341
     29 C         140.1819  144.6702  164.2114 C.3     1  UNL1        0.0556
     30 C         141.5218  144.6921  163.5374 C.ar    1  UNL1        0.1001
     31 N         142.8026  145.1912  164.1375 N.ar    1  UNL1       -0.2085
     32 C         143.8884  145.0264  163.1160 C.ar    1  UNL1        0.2849
     33 O         143.2787  144.4253  161.8843 O.2     1  UNL1       -0.4283
     34 C         141.8160  144.2187  162.1448 C.ar    1  UNL1        0.1964
@<TRIPOS>BOND
     1    29    30    1
     2    30    31   ar
     3    31    32   ar
     4    32    33   ar
     5    33    34   ar
     6    34    23    1
     7    23    24   ar
     8    24    25   ar
     9    25    26   ar
    10    26    22    1
    11    22    21    1
    12    21    20    1
    13    20    19    1
    14    19     1    1
    15     1     2    1
    16     2     3    1
    17     3     4    1
    18     4     5    1
    19     5     6    1
    20     6     9    1
    21     9    10   ar
    22    10    11   ar
    23    11    12   ar
    24    12    15    1
    25    15    16    1
    26    15    17    1
    27    15    18    1
    28    12    13   ar
    29    13    14   ar
    30     6     7    1
    31     7     8    1
    32    26    27   ar
    33    27    28    1
    34    34    30   ar
    35    27    23   ar
    36     8     1    1
    37     6     4    1
    38    14     9   ar
