@<TRIPOS>MOLECULE
*****
 26 29 0 0 0
SMALL
GASTEIGER

@<TRIPOS>ATOM
      1 N         141.1280  141.1259  166.1606 N.pl3   1  UNL1       -0.2859
      2 C         140.8175  141.5117  167.5765 C.ar    1  UNL1        0.0576
      3 C         141.5527  142.6484  168.2225 C.ar    1  UNL1        0.0153
      4 C         141.2422  143.0341  169.6384 C.ar    1  UNL1        0.0013
      5 C         140.1966  142.2832  170.4083 C.ar    1  UNL1        0.0006
      6 C         139.4615  141.1464  169.7623 C.ar    1  UNL1        0.0077
      7 C         139.7719  140.7607  168.3464 C.ar    1  UNL1        0.0431
      8 S         139.0367  139.6239  167.7003 S.3     1  UNL1       -0.0844
      9 C         139.3472  139.2382  166.2844 C.ar    1  UNL1        0.0434
     10 C         138.6120  138.1014  165.6383 C.ar    1  UNL1        0.0122
     11 C         138.9225  137.7157  164.2225 C.ar    1  UNL1        0.0525
     12 C         139.9681  138.4667  163.4526 C.ar    1  UNL1        0.1820
     13 C         140.7033  139.6034  164.0986 C.ar    1  UNL1        0.0672
     14 C         140.3928  139.9892  165.5146 C.ar    1  UNL1        0.0620
     15 S         140.2786  138.0809  162.0367 S.O     1  UNL1        0.0582
     16 C         139.2787  138.3467  160.9505 C.3     1  UNL1        0.3254
     17 O         141.5888  137.4295  161.7069 O.co2   1  UNL1       -0.6774
     18 C         142.1736  141.8769  165.3907 C.3     1  UNL1        0.0970
     19 C         141.8534  143.2200  164.8048 C.3     1  UNL1        0.0377
     20 C         141.1378  142.6593  161.9458 C.3     1  UNL1        0.0896
     21 N         140.1106  143.2302  162.8780 N.3     1  UNL1       -0.2727
     22 C         138.7256  143.5207  162.3807 C.3     1  UNL1        0.0721
     23 C         137.6983  144.0915  163.3129 C.3     1  UNL1        0.0174
     24 C         138.0561  144.3719  164.7424 C.3     1  UNL1        0.0028
     25 C         139.4412  144.0814  165.2397 C.3     1  UNL1        0.0161
     26 C         140.4684  143.5105  164.3075 C.3     1  UNL1        0.0593
@<TRIPOS>UNITY_ATOM_ATTR
15 1
charge 1
17 1
charge -1
@<TRIPOS>BOND
     1    20    21    1
     2    21    22    1
     3    22    23    1
     4    23    24    1
     5    24    25    1
     6    25    26    1
     7    26    19    1
     8    19    18    1
     9    18     1    1
    10     1     2    1
    11     2     3   ar
    12     3     4   ar
    13     4     5   ar
    14     5     6   ar
    15     6     7   ar
    16     7     8    1
    17     8     9    1
    18     9    10   ar
    19    10    11   ar
    20    11    12   ar
    21    12    15    1
    22    15    16    1
    23    15    17    2
    24    12    13   ar
    25    13    14   ar
    26    26    21    1
    27    14     1    1
    28     7     2   ar
    29    14     9   ar
@<TRIPOS>MOLECULE
*****
 26 29 0 0 0
SMALL
GASTEIGER

@<TRIPOS>ATOM
      1 N         141.1635  140.8532  165.4134 N.pl3   1  UNL1       -0.2859
      2 C         140.5541  139.7966  164.5402 C.ar    1  UNL1        0.0576
      3 C         141.0000  139.6521  163.1154 C.ar    1  UNL1        0.0153
      4 C         140.3906  138.5955  162.2423 C.ar    1  UNL1        0.0013
      5 C         139.3353  137.6835  162.7941 C.ar    1  UNL1        0.0006
      6 C         138.8893  137.8280  164.2189 C.ar    1  UNL1        0.0077
      7 C         139.4987  138.8846  165.0920 C.ar    1  UNL1        0.0431
      8 S         139.0528  139.0291  166.5169 S.3     1  UNL1       -0.0844
      9 C         139.6622  140.0856  167.3900 C.ar    1  UNL1        0.0434
     10 C         139.2163  140.2302  168.8149 C.ar    1  UNL1        0.0122
     11 C         139.8257  141.2867  169.6880 C.ar    1  UNL1        0.0525
     12 C         140.8811  142.1988  169.1362 C.ar    1  UNL1        0.1820
     13 C         141.3270  142.0542  167.7114 C.ar    1  UNL1        0.0672
     14 C         140.7176  140.9977  166.8382 C.ar    1  UNL1        0.0620
     15 S         141.4905  143.2553  170.0093 S.O     1  UNL1        0.0582
     16 C         142.8767  143.0718  170.5523 C.3     1  UNL1        0.3254
     17 O         140.7137  144.4953  170.3394 O.co2   1  UNL1       -0.6774
     18 C         142.2189  141.7652  164.8616 C.3     1  UNL1        0.0970
     19 C         141.8675  143.1710  164.4743 C.3     1  UNL1        0.0377
     20 C         141.0684  142.9691  161.5897 C.3     1  UNL1        0.0896
     21 N         140.0661  143.4055  162.6168 N.3     1  UNL1       -0.2727
     22 C         138.6643  143.7409  162.2017 C.3     1  UNL1        0.0721
     23 C         137.6620  144.1773  163.2287 C.3     1  UNL1        0.0174
     24 C         138.0615  144.2783  164.6711 C.3     1  UNL1        0.0028
     25 C         139.4633  143.9429  165.0862 C.3     1  UNL1        0.0161
     26 C         140.4656  143.5064  164.0591 C.3     1  UNL1        0.0593
@<TRIPOS>UNITY_ATOM_ATTR
15 1
charge 1
17 1
charge -1
@<TRIPOS>BOND
     1    20    21    1
     2    21    22    1
     3    22    23    1
     4    23    24    1
     5    24    25    1
     6    25    26    1
     7    26    19    1
     8    19    18    1
     9    18     1    1
    10     1     2    1
    11     2     3   ar
    12     3     4   ar
    13     4     5   ar
    14     5     6   ar
    15     6     7   ar
    16     7     8    1
    17     8     9    1
    18     9    10   ar
    19    10    11   ar
    20    11    12   ar
    21    12    15    1
    22    15    16    1
    23    15    17    2
    24    12    13   ar
    25    13    14   ar
    26    26    21    1
    27    14     1    1
    28     7     2   ar
    29    14     9   ar
@<TRIPOS>MOLECULE
*****
 26 29 0 0 0
SMALL
GASTEIGER

@<TRIPOS>ATOM
      1 N         139.0646  139.9701  165.0688 N.pl3   1  UNL1       -0.2859
      2 C         138.7411  140.7162  163.8084 C.ar    1  UNL1        0.0576
      3 C         138.2035  139.9793  162.6176 C.ar    1  UNL1        0.0153
      4 C         137.8799  140.7254  161.3573 C.ar    1  UNL1        0.0013
      5 C         138.0939  142.2085  161.2877 C.ar    1  UNL1        0.0006
      6 C         138.6315  142.9454  162.4785 C.ar    1  UNL1        0.0077
      7 C         138.9551  142.1992  163.7388 C.ar    1  UNL1        0.0431
      8 S         139.4927  142.9361  164.9297 S.3     1  UNL1       -0.0844
      9 C         139.8162  142.1900  166.1900 C.ar    1  UNL1        0.0434
     10 C         140.3538  142.9268  167.3809 C.ar    1  UNL1        0.0122
     11 C         140.6774  142.1807  168.6412 C.ar    1  UNL1        0.0525
     12 C         140.4634  140.6977  168.7108 C.ar    1  UNL1        0.1820
     13 C         139.9258  139.9608  167.5201 C.ar    1  UNL1        0.0672
     14 C         139.6022  140.7069  166.2596 C.ar    1  UNL1        0.0620
     15 S         140.7869  139.9515  169.9712 S.O     1  UNL1        0.0582
     16 C         142.1801  139.4487  170.2085 C.3     1  UNL1        0.3254
     17 O         139.7173  139.7082  170.9943 O.co2   1  UNL1       -0.6774
     18 C         138.8506  138.4870  165.1384 C.3     1  UNL1        0.0970
     19 C         139.9217  137.5515  164.6616 C.3     1  UNL1        0.0377
     20 C         140.8738  137.9312  161.8421 C.3     1  UNL1        0.0896
     21 N         141.7820  138.2568  162.9907 N.3     1  UNL1       -0.2727
     22 C         143.1662  138.7722  162.7295 C.3     1  UNL1        0.0721
     23 C         144.0744  139.0978  163.8780 C.3     1  UNL1        0.0174
     24 C         143.5984  138.9080  165.2878 C.3     1  UNL1        0.0028
     25 C         142.2142  138.3925  165.5490 C.3     1  UNL1        0.0161
     26 C         141.3060  138.0669  164.4004 C.3     1  UNL1        0.0593
@<TRIPOS>UNITY_ATOM_ATTR
15 1
charge 1
17 1
charge -1
@<TRIPOS>BOND
     1    20    21    1
     2    21    22    1
     3    22    23    1
     4    23    24    1
     5    24    25    1
     6    25    26    1
     7    26    19    1
     8    19    18    1
     9    18     1    1
    10     1     2    1
    11     2     3   ar
    12     3     4   ar
    13     4     5   ar
    14     5     6   ar
    15     6     7   ar
    16     7     8    1
    17     8     9    1
    18     9    10   ar
    19    10    11   ar
    20    11    12   ar
    21    12    15    1
    22    15    16    1
    23    15    17    2
    24    12    13   ar
    25    13    14   ar
    26    26    21    1
    27    14     1    1
    28     7     2   ar
    29    14     9   ar
@<TRIPOS>MOLECULE
*****
 26 29 0 0 0
SMALL
GASTEIGER

@<TRIPOS>ATOM
      1 N         141.5893  138.9715  164.9012 N.pl3   1  UNL1       -0.2859
      2 C         142.4348  139.0036  163.6626 C.ar    1  UNL1        0.0576
      3 C         142.2612  137.9506  162.6085 C.ar    1  UNL1        0.0153
      4 C         143.1067  137.9828  161.3700 C.ar    1  UNL1        0.0013
      5 C         144.1257  139.0680  161.1855 C.ar    1  UNL1        0.0006
      6 C         144.2993  140.1210  162.2395 C.ar    1  UNL1        0.0077
      7 C         143.4538  140.0888  163.4781 C.ar    1  UNL1        0.0431
      8 S         143.6273  141.1418  164.5322 S.3     1  UNL1       -0.0844
      9 C         142.7818  141.1096  165.7708 C.ar    1  UNL1        0.0434
     10 C         142.9553  142.1626  166.8249 C.ar    1  UNL1        0.0122
     11 C         142.1098  142.1304  168.0635 C.ar    1  UNL1        0.0525
     12 C         141.0908  141.0453  168.2480 C.ar    1  UNL1        0.1820
     13 C         140.9173  139.9923  167.1939 C.ar    1  UNL1        0.0672
     14 C         141.7628  140.0244  165.9553 C.ar    1  UNL1        0.0620
     15 S         140.2454  141.0131  169.4866 S.O     1  UNL1        0.0582
     16 C         139.9444  142.2850  170.2225 C.3     1  UNL1        0.3254
     17 O         139.7008  139.7089  169.9892 O.co2   1  UNL1       -0.6774
     18 C         140.5703  137.8863  165.0857 C.3     1  UNL1        0.0970
     19 C         139.1120  138.1885  164.9066 C.3     1  UNL1        0.0377
     20 C         138.2678  141.0672  164.8977 C.3     1  UNL1        0.0896
     21 N         138.2061  140.2636  163.6326 N.3     1  UNL1       -0.2727
     22 C         137.7224  140.8994  162.3631 C.3     1  UNL1        0.0721
     23 C         137.6607  140.0959  161.0980 C.3     1  UNL1        0.0174
     24 C         138.0829  138.6565  161.1024 C.3     1  UNL1        0.0028
     25 C         138.5666  138.0207  162.3719 C.3     1  UNL1        0.0161
     26 C         138.6283  138.8243  163.6371 C.3     1  UNL1        0.0593
@<TRIPOS>UNITY_ATOM_ATTR
15 1
charge 1
17 1
charge -1
@<TRIPOS>BOND
     1    20    21    1
     2    21    22    1
     3    22    23    1
     4    23    24    1
     5    24    25    1
     6    25    26    1
     7    26    19    1
     8    19    18    1
     9    18     1    1
    10     1     2    1
    11     2     3   ar
    12     3     4   ar
    13     4     5   ar
    14     5     6   ar
    15     6     7   ar
    16     7     8    1
    17     8     9    1
    18     9    10   ar
    19    10    11   ar
    20    11    12   ar
    21    12    15    1
    22    15    16    1
    23    15    17    2
    24    12    13   ar
    25    13    14   ar
    26    26    21    1
    27    14     1    1
    28     7     2   ar
    29    14     9   ar
@<TRIPOS>MOLECULE
*****
 26 29 0 0 0
SMALL
GASTEIGER

@<TRIPOS>ATOM
      1 N         140.0112  142.1200  164.8197 N.pl3   1  UNL1       -0.2859
      2 C         139.4999  141.1565  163.7900 C.ar    1  UNL1        0.0576
      3 C         139.5121  141.5338  162.3383 C.ar    1  UNL1        0.0153
      4 C         139.0008  140.5703  161.3086 C.ar    1  UNL1        0.0013
      5 C         138.4774  139.2295  161.7307 C.ar    1  UNL1        0.0006
      6 C         138.4652  138.8521  163.1824 C.ar    1  UNL1        0.0077
      7 C         138.9765  139.8157  164.2120 C.ar    1  UNL1        0.0431
      8 S         138.9643  139.4384  165.6638 S.3     1  UNL1       -0.0844
      9 C         139.4756  140.4019  166.6934 C.ar    1  UNL1        0.0434
     10 C         139.4634  140.0246  168.1452 C.ar    1  UNL1        0.0122
     11 C         139.9747  140.9881  169.1748 C.ar    1  UNL1        0.0525
     12 C         140.4981  142.3289  168.7528 C.ar    1  UNL1        0.1820
     13 C         140.5103  142.7062  167.3011 C.ar    1  UNL1        0.0672
     14 C         139.9990  141.7427  166.2714 C.ar    1  UNL1        0.0620
     15 S         141.0094  143.2924  169.7824 S.O     1  UNL1        0.0582
     16 C         142.3712  143.0982  170.3806 C.3     1  UNL1        0.3254
     17 O         140.1589  144.4502  170.2139 O.co2   1  UNL1       -0.6774
     18 C         140.5347  143.4609  164.3976 C.3     1  UNL1        0.0970
     19 C         142.0135  143.6909  164.2970 C.3     1  UNL1        0.0377
     20 C         142.6754  143.2662  161.4019 C.3     1  UNL1        0.0896
     21 N         143.2524  142.3553  162.4447 N.3     1  UNL1       -0.2727
     22 C         144.1603  141.2320  162.0399 C.3     1  UNL1        0.0721
     23 C         144.7373  140.3210  163.0826 C.3     1  UNL1        0.0174
     24 C         144.4063  140.5334  164.5302 C.3     1  UNL1        0.0028
     25 C         143.4984  141.6567  164.9350 C.3     1  UNL1        0.0161
     26 C         142.9214  142.5676  163.8922 C.3     1  UNL1        0.0593
@<TRIPOS>UNITY_ATOM_ATTR
15 1
charge 1
17 1
charge -1
@<TRIPOS>BOND
     1    20    21    1
     2    21    22    1
     3    22    23    1
     4    23    24    1
     5    24    25    1
     6    25    26    1
     7    26    19    1
     8    19    18    1
     9    18     1    1
    10     1     2    1
    11     2     3   ar
    12     3     4   ar
    13     4     5   ar
    14     5     6   ar
    15     6     7   ar
    16     7     8    1
    17     8     9    1
    18     9    10   ar
    19    10    11   ar
    20    11    12   ar
    21    12    15    1
    22    15    16    1
    23    15    17    2
    24    12    13   ar
    25    13    14   ar
    26    26    21    1
    27    14     1    1
    28     7     2   ar
    29    14     9   ar
@<TRIPOS>MOLECULE
*****
 26 29 0 0 0
SMALL
GASTEIGER

@<TRIPOS>ATOM
      1 N         140.8648  140.2677  165.6325 N.pl3   1  UNL1       -0.2859
      2 C         139.7528  139.3320  166.0040 C.ar    1  UNL1        0.0576
      3 C         138.8451  139.6638  167.1511 C.ar    1  UNL1        0.0153
      4 C         137.7331  138.7281  167.5226 C.ar    1  UNL1        0.0013
      5 C         137.5288  137.4606  166.7468 C.ar    1  UNL1        0.0006
      6 C         138.4365  137.1288  165.5997 C.ar    1  UNL1        0.0077
      7 C         139.5485  138.0645  165.2282 C.ar    1  UNL1        0.0431
      8 S         140.4562  137.7327  164.0810 S.3     1  UNL1       -0.0844
      9 C         141.5681  138.6684  163.7096 C.ar    1  UNL1        0.0434
     10 C         142.4759  138.3366  162.5624 C.ar    1  UNL1        0.0122
     11 C         143.5878  139.2723  162.1909 C.ar    1  UNL1        0.0525
     12 C         143.7921  140.5398  162.9667 C.ar    1  UNL1        0.1820
     13 C         142.8845  140.8716  164.1138 C.ar    1  UNL1        0.0672
     14 C         141.7724  139.9359  164.4853 C.ar    1  UNL1        0.0620
     15 S         144.9041  141.4755  162.5953 S.O     1  UNL1        0.0582
     16 C         145.9886  141.7820  163.5852 C.3     1  UNL1        0.3254
     17 O         144.9316  142.1047  161.2339 O.co2   1  UNL1       -0.6774
     18 C         141.0691  141.5352  166.4082 C.3     1  UNL1        0.0970
     19 C         140.1568  142.7051  166.1872 C.3     1  UNL1        0.0377
     20 C         141.4568  144.3378  164.0322 C.3     1  UNL1        0.0896
     21 N         140.1219  143.6991  163.7871 N.3     1  UNL1       -0.2727
     22 C         139.4370  143.8767  162.4644 C.3     1  UNL1        0.0721
     23 C         138.1021  143.2380  162.2193 C.3     1  UNL1        0.0174
     24 C         137.4520  142.4216  163.2968 C.3     1  UNL1        0.0028
     25 C         138.1369  142.2440  164.6195 C.3     1  UNL1        0.0161
     26 C         139.4719  142.8827  164.8646 C.3     1  UNL1        0.0593
@<TRIPOS>UNITY_ATOM_ATTR
15 1
charge 1
17 1
charge -1
@<TRIPOS>BOND
     1    20    21    1
     2    21    22    1
     3    22    23    1
     4    23    24    1
     5    24    25    1
     6    25    26    1
     7    26    19    1
     8    19    18    1
     9    18     1    1
    10     1     2    1
    11     2     3   ar
    12     3     4   ar
    13     4     5   ar
    14     5     6   ar
    15     6     7   ar
    16     7     8    1
    17     8     9    1
    18     9    10   ar
    19    10    11   ar
    20    11    12   ar
    21    12    15    1
    22    15    16    1
    23    15    17    2
    24    12    13   ar
    25    13    14   ar
    26    26    21    1
    27    14     1    1
    28     7     2   ar
    29    14     9   ar
@<TRIPOS>MOLECULE
*****
 26 29 0 0 0
SMALL
GASTEIGER

@<TRIPOS>ATOM
      1 N         142.2617  139.0078  165.3559 N.pl3   1  UNL1       -0.2859
      2 C         141.5271  138.6928  164.0865 C.ar    1  UNL1        0.0576
      3 C         142.2885  138.2796  162.8621 C.ar    1  UNL1        0.0153
      4 C         141.5538  137.9646  161.5928 C.ar    1  UNL1        0.0013
      5 C         140.0577  138.0630  161.5481 C.ar    1  UNL1        0.0006
      6 C         139.2963  138.4762  162.7725 C.ar    1  UNL1        0.0077
      7 C         140.0310  138.7912  164.0418 C.ar    1  UNL1        0.0431
      8 S         139.2695  139.2044  165.2664 S.3     1  UNL1       -0.0844
      9 C         140.0042  139.5194  166.5356 C.ar    1  UNL1        0.0434
     10 C         139.2428  139.9326  167.7602 C.ar    1  UNL1        0.0122
     11 C         139.9774  140.2476  169.0294 C.ar    1  UNL1        0.0525
     12 C         141.4735  140.1492  169.0742 C.ar    1  UNL1        0.1820
     13 C         142.2350  139.7360  167.8497 C.ar    1  UNL1        0.0672
     14 C         141.5003  139.4210  166.5804 C.ar    1  UNL1        0.0620
     15 S         142.2082  140.4642  170.3434 S.O     1  UNL1        0.0582
     16 C         141.6572  141.4838  171.2957 C.3     1  UNL1        0.3254
     17 O         143.4939  139.7595  170.6605 O.co2   1  UNL1       -0.6774
     18 C         143.7578  138.9095  165.4007 C.3     1  UNL1        0.0970
     19 C         144.5926  139.7508  164.4813 C.3     1  UNL1        0.0377
     20 C         144.5708  140.9862  161.7475 C.3     1  UNL1        0.0896
     21 N         144.2804  141.8291  162.9539 N.3     1  UNL1       -0.2727
     22 C         143.9792  143.2898  162.7933 C.3     1  UNL1        0.0721
     23 C         143.6888  144.1327  163.9996 C.3     1  UNL1        0.0174
     24 C         143.6997  143.5150  165.3665 C.3     1  UNL1        0.0028
     25 C         144.0010  142.0543  165.5271 C.3     1  UNL1        0.0161
     26 C         144.2913  141.2114  164.3207 C.3     1  UNL1        0.0593
@<TRIPOS>UNITY_ATOM_ATTR
15 1
charge 1
17 1
charge -1
@<TRIPOS>BOND
     1    20    21    1
     2    21    22    1
     3    22    23    1
     4    23    24    1
     5    24    25    1
     6    25    26    1
     7    26    19    1
     8    19    18    1
     9    18     1    1
    10     1     2    1
    11     2     3   ar
    12     3     4   ar
    13     4     5   ar
    14     5     6   ar
    15     6     7   ar
    16     7     8    1
    17     8     9    1
    18     9    10   ar
    19    10    11   ar
    20    11    12   ar
    21    12    15    1
    22    15    16    1
    23    15    17    2
    24    12    13   ar
    25    13    14   ar
    26    26    21    1
    27    14     1    1
    28     7     2   ar
    29    14     9   ar
@<TRIPOS>MOLECULE
*****
 26 29 0 0 0
SMALL
GASTEIGER

@<TRIPOS>ATOM
      1 N         139.9796  143.0480  164.4487 N.pl3   1  UNL1       -0.2859
      2 C         140.5497  143.4491  163.1204 C.ar    1  UNL1        0.0576
      3 C         139.6331  143.7952  161.9846 C.ar    1  UNL1        0.0153
      4 C         140.2032  144.1963  160.6564 C.ar    1  UNL1        0.0013
      5 C         141.6898  144.2513  160.4640 C.ar    1  UNL1        0.0006
      6 C         142.6063  143.9052  161.5998 C.ar    1  UNL1        0.0077
      7 C         142.0363  143.5041  162.9280 C.ar    1  UNL1        0.0431
      8 S         142.9528  143.1580  164.0639 S.3     1  UNL1       -0.0844
      9 C         142.3828  142.7569  165.3921 C.ar    1  UNL1        0.0434
     10 C         143.2994  142.4108  166.5280 C.ar    1  UNL1        0.0122
     11 C         142.7293  142.0097  167.8562 C.ar    1  UNL1        0.0525
     12 C         141.2427  141.9548  168.0486 C.ar    1  UNL1        0.1820
     13 C         140.3262  142.3009  166.9128 C.ar    1  UNL1        0.0672
     14 C         140.8962  142.7019  165.5845 C.ar    1  UNL1        0.0620
     15 S         140.6727  141.5537  169.3768 S.O     1  UNL1        0.0582
     16 C         140.8537  140.1515  169.8781 C.3     1  UNL1        0.3254
     17 O         139.9216  142.5547  170.2037 O.co2   1  UNL1       -0.6774
     18 C         138.4931  142.9931  164.6411 C.3     1  UNL1        0.0970
     19 C         137.6988  141.8759  164.0321 C.3     1  UNL1        0.0377
     20 C         138.5363  140.2279  161.6692 C.3     1  UNL1        0.0896
     21 N         138.5529  139.6297  163.0447 N.3     1  UNL1       -0.2727
     22 C         138.9882  138.2074  163.2387 C.3     1  UNL1        0.0721
     23 C         139.0048  137.6091  164.6141 C.3     1  UNL1        0.0174
     24 C         138.5861  138.4331  165.7956 C.3     1  UNL1        0.0028
     25 C         138.1507  139.8553  165.6016 C.3     1  UNL1        0.0161
     26 C         138.1341  140.4536  164.2261 C.3     1  UNL1        0.0593
@<TRIPOS>UNITY_ATOM_ATTR
15 1
charge 1
17 1
charge -1
@<TRIPOS>BOND
     1    20    21    1
     2    21    22    1
     3    22    23    1
     4    23    24    1
     5    24    25    1
     6    25    26    1
     7    26    19    1
     8    19    18    1
     9    18     1    1
    10     1     2    1
    11     2     3   ar
    12     3     4   ar
    13     4     5   ar
    14     5     6   ar
    15     6     7   ar
    16     7     8    1
    17     8     9    1
    18     9    10   ar
    19    10    11   ar
    20    11    12   ar
    21    12    15    1
    22    15    16    1
    23    15    17    2
    24    12    13   ar
    25    13    14   ar
    26    26    21    1
    27    14     1    1
    28     7     2   ar
    29    14     9   ar
@<TRIPOS>MOLECULE
*****
 26 29 0 0 0
SMALL
GASTEIGER

@<TRIPOS>ATOM
      1 N         142.3884  140.5901  166.1873 N.pl3   1  UNL1       -0.2859
      2 C         141.9200  140.5255  167.6109 C.ar    1  UNL1        0.0576
      3 C         142.4181  139.4379  168.5158 C.ar    1  UNL1        0.0153
      4 C         141.9497  139.3734  169.9393 C.ar    1  UNL1        0.0013
      5 C         140.9831  140.3965  170.4579 C.ar    1  UNL1        0.0006
      6 C         140.4850  141.4842  169.5530 C.ar    1  UNL1        0.0077
      7 C         140.9535  141.5487  168.1295 C.ar    1  UNL1        0.0431
      8 S         140.4554  142.6364  167.2246 S.3     1  UNL1       -0.0844
      9 C         140.9238  142.7009  165.8011 C.ar    1  UNL1        0.0434
     10 C         140.4257  143.7886  164.8961 C.ar    1  UNL1        0.0122
     11 C         140.8941  143.8531  163.4726 C.ar    1  UNL1        0.0525
     12 C         141.8607  142.8299  162.9540 C.ar    1  UNL1        0.1820
     13 C         142.3588  141.7423  163.8589 C.ar    1  UNL1        0.0672
     14 C         141.8903  141.6777  165.2825 C.ar    1  UNL1        0.0620
     15 S         142.3291  142.8944  161.5305 S.O     1  UNL1        0.0582
     16 C         142.2800  141.6678  160.6685 C.3     1  UNL1        0.3254
     17 O         142.8466  144.1855  160.9690 O.co2   1  UNL1       -0.6774
     18 C         143.3550  139.5669  165.6687 C.3     1  UNL1        0.0970
     19 C         142.8650  138.2061  165.2710 C.3     1  UNL1        0.0377
     20 C         143.1700  138.1984  162.2865 C.3     1  UNL1        0.0896
     21 N         141.8082  138.0673  162.9017 N.3     1  UNL1       -0.2727
     22 C         140.5989  137.9324  162.0245 C.3     1  UNL1        0.0721
     23 C         139.2371  137.8013  162.6396 C.3     1  UNL1        0.0174
     24 C         139.0846  137.8051  164.1319 C.3     1  UNL1        0.0028
     25 C         140.2939  137.9401  165.0090 C.3     1  UNL1        0.0161
     26 C         141.6557  138.0712  164.3939 C.3     1  UNL1        0.0593
@<TRIPOS>UNITY_ATOM_ATTR
15 1
charge 1
17 1
charge -1
@<TRIPOS>BOND
     1    20    21    1
     2    21    22    1
     3    22    23    1
     4    23    24    1
     5    24    25    1
     6    25    26    1
     7    26    19    1
     8    19    18    1
     9    18     1    1
    10     1     2    1
    11     2     3   ar
    12     3     4   ar
    13     4     5   ar
    14     5     6   ar
    15     6     7   ar
    16     7     8    1
    17     8     9    1
    18     9    10   ar
    19    10    11   ar
    20    11    12   ar
    21    12    15    1
    22    15    16    1
    23    15    17    2
    24    12    13   ar
    25    13    14   ar
    26    26    21    1
    27    14     1    1
    28     7     2   ar
    29    14     9   ar
