@<TRIPOS>MOLECULE
*****
 36 39 0 0 0
SMALL
GASTEIGER

@<TRIPOS>ATOM
      1 C         141.3575  138.7796  161.1446 C.ar    1  UNL1       -0.0223
      2 C         140.6391  137.8703  162.0970 C.ar    1  UNL1       -0.0030
      3 C         140.6052  138.1937  163.5614 C.ar    1  UNL1        0.0143
      4 C         141.2896  139.4263  164.0733 C.ar    1  UNL1        0.0502
      5 C         142.0080  140.3355  163.1209 C.ar    1  UNL1        0.0089
      6 C         142.0420  140.0122  161.6566 C.ar    1  UNL1       -0.0034
      7 C         141.4933  137.4863  155.2872 C.2     1  UNL1        0.2420
      8 O         140.2919  137.7580  154.4311 O.2     1  UNL1       -0.2734
      9 N         141.4593  137.8096  156.7516 N.am    1  UNL1       -0.2784
     10 C         142.6606  137.5379  157.6077 C.3     1  UNL1        0.0938
     11 C         142.6267  137.8612  159.0720 C.3     1  UNL1        0.0259
     12 C         141.3914  138.4563  159.6803 C.3     1  UNL1        0.0257
     13 C         140.1901  138.7280  158.8242 C.3     1  UNL1        0.0259
     14 C         140.2241  138.4046  157.3598 C.3     1  UNL1        0.0938
     15 C         142.7285  136.8912  154.6790 C.3     1  UNL1        0.1587
     16 C         143.7143  134.6455  155.5365 C.3     1  UNL1        0.0900
     17 N         142.8633  135.4020  154.5599 N.3     1  UNL1       -0.2626
     18 C         142.1471  134.6694  153.4644 C.3     1  UNL1        0.0900
     19 C         142.6925  141.5682  163.6329 C.2     1  UNL1       -0.0253
     20 C         141.9586  142.8761  163.6626 C.2     1  UNL1       -0.0303
     21 C         142.6430  144.1087  164.1745 C.3     1  UNL1        0.0257
     22 C         144.0614  144.0336  164.6567 C.3     1  UNL1        0.0050
     23 C         144.7954  142.7257  164.6270 C.3     1  UNL1        0.0050
     24 C         144.1109  141.4930  164.1150 C.3     1  UNL1        0.0261
     25 N         141.2557  139.7496  165.5377 N.am    1  UNL1       -0.2779
     26 C         142.2900  139.1717  166.4575 C.2     1  UNL1        0.2837
     27 O         143.3583  138.2703  165.9130 O.2     1  UNL1       -0.2665
     28 H         140.5545  140.3412  165.8950 H       1  UNL1        0.1553
     29 C         142.2560  139.4950  167.9218 C.ar    1  UNL1        0.1959
     30 N         141.3837  140.5241  168.5776 N.ar    1  UNL1       -0.2123
     31 C         141.6770  140.5111  170.0486 C.ar    1  UNL1        0.1678
     32 C         142.7306  139.4740  170.3020 C.ar    1  UNL1        0.1036
     33 N         143.0886  138.8460  168.9876 N.ar    1  UNL1       -0.3319
     34 H         143.7532  138.1330  168.8488 H       1  UNL1        0.1676
     35 C         141.0302  141.3822  171.0843 C.1     1  UNL1        0.1214
     36 N         140.3834  142.2533  172.1200 N.1     1  UNL1       -0.1892
@<TRIPOS>BOND
     1    16    17    1
     2    17    18    1
     3    17    15    1
     4    15     7    1
     5     7     8    2
     6     7     9   am
     7     9    10    1
     8    10    11    1
     9    11    12    1
    10    12     1    1
    11     1     2   ar
    12     2     3   ar
    13     3     4   ar
    14     4    25    1
    15    25    26   am
    16    26    27    2
    17    26    29    1
    18    29    30   ar
    19    30    31   ar
    20    31    35    1
    21    35    36    3
    22    31    32   ar
    23    32    33   ar
    24     4     5   ar
    25     5    19    1
    26    19    20    2
    27    20    21    1
    28    21    22    1
    29    22    23    1
    30    23    24    1
    31     5     6   ar
    32    12    13    1
    33    13    14    1
    34    14     9    1
    35     6     1   ar
    36    33    29   ar
    37    24    19    1
    38    25    28    1
    39    33    34    1
@<TRIPOS>MOLECULE
*****
 36 39 0 0 0
SMALL
GASTEIGER

@<TRIPOS>ATOM
      1 C         141.0784  138.7882  161.0675 C.ar    1  UNL1       -0.0223
      2 C         141.6532  137.8646  162.1002 C.ar    1  UNL1       -0.0030
      3 C         141.6137  138.2439  163.5509 C.ar    1  UNL1        0.0143
      4 C         140.9993  139.5469  163.9689 C.ar    1  UNL1        0.0502
      5 C         140.4244  140.4705  162.9362 C.ar    1  UNL1        0.0089
      6 C         140.4639  140.0911  161.4855 C.ar    1  UNL1       -0.0034
      7 C         141.2365  137.2708  155.2647 C.2     1  UNL1        0.2420
      8 O         139.9900  137.3508  154.4343 O.2     1  UNL1       -0.2734
      9 N         141.1970  137.6501  156.7154 N.am    1  UNL1       -0.2784
     10 C         142.4436  137.5701  157.5458 C.3     1  UNL1        0.0938
     11 C         142.4040  137.9494  158.9965 C.3     1  UNL1        0.0259
     12 C         141.1179  138.4088  159.6168 C.3     1  UNL1        0.0257
     13 C         139.8713  138.4889  158.7864 C.3     1  UNL1        0.0259
     14 C         139.9109  138.1095  157.3357 C.3     1  UNL1        0.0938
     15 C         142.5227  136.8114  154.6444 C.3     1  UNL1        0.1587
     16 C         142.2332  134.4833  153.5279 C.3     1  UNL1        0.0900
     17 N         142.8477  135.3481  154.5885 N.3     1  UNL1       -0.2626
     18 C         143.7872  134.7496  155.5930 C.3     1  UNL1        0.0900
     19 C         139.8099  141.7735  163.3542 C.2     1  UNL1       -0.0253
     20 C         138.3441  141.8462  163.6641 C.2     1  UNL1       -0.0303
     21 C         137.7296  143.1491  164.0821 C.3     1  UNL1        0.0257
     22 C         138.5809  144.3794  164.1902 C.3     1  UNL1        0.0050
     23 C         140.0468  144.3067  163.8803 C.3     1  UNL1        0.0050
     24 C         140.6613  143.0037  163.4623 C.3     1  UNL1        0.0261
     25 N         140.9597  139.9262  165.4196 N.am    1  UNL1       -0.2779
     26 C         139.7781  139.5468  166.2621 C.2     1  UNL1        0.2837
     27 O         138.6360  138.7881  165.6539 O.2     1  UNL1       -0.2665
     28 H         141.7093  140.4242  165.8188 H       1  UNL1        0.1553
     29 C         139.7386  139.9262  167.7128 C.ar    1  UNL1        0.1959
     30 N         140.7835  140.7127  168.4473 N.ar    1  UNL1       -0.2123
     31 C         140.3379  140.8583  169.8721 C.ar    1  UNL1        0.1678
     32 C         139.0175  140.1617  170.0183 C.ar    1  UNL1        0.1036
     33 N         138.6470  139.5856  168.6838 N.ar    1  UNL1       -0.3319
     34 H         137.8309  139.0739  168.4808 H       1  UNL1        0.1676
     35 C         141.0820  141.5745  170.9598 C.1     1  UNL1        0.1214
     36 N         141.8260  142.2909  172.0476 N.1     1  UNL1       -0.1892
@<TRIPOS>BOND
     1    16    17    1
     2    17    18    1
     3    17    15    1
     4    15     7    1
     5     7     8    2
     6     7     9   am
     7     9    10    1
     8    10    11    1
     9    11    12    1
    10    12     1    1
    11     1     2   ar
    12     2     3   ar
    13     3     4   ar
    14     4    25    1
    15    25    26   am
    16    26    27    2
    17    26    29    1
    18    29    30   ar
    19    30    31   ar
    20    31    35    1
    21    35    36    3
    22    31    32   ar
    23    32    33   ar
    24     4     5   ar
    25     5    19    1
    26    19    20    2
    27    20    21    1
    28    21    22    1
    29    22    23    1
    30    23    24    1
    31     5     6   ar
    32    12    13    1
    33    13    14    1
    34    14     9    1
    35     6     1   ar
    36    33    29   ar
    37    24    19    1
    38    25    28    1
    39    33    34    1
@<TRIPOS>MOLECULE
*****
 36 39 0 0 0
SMALL
GASTEIGER

@<TRIPOS>ATOM
      1 C         141.0035  138.7508  161.1149 C.ar    1  UNL1       -0.0223
      2 C         141.5170  137.6745  162.0246 C.ar    1  UNL1       -0.0030
      3 C         141.4952  137.8753  163.5110 C.ar    1  UNL1        0.0143
      4 C         140.9600  139.1524  164.0876 C.ar    1  UNL1        0.0502
      5 C         140.4465  140.2287  163.1778 C.ar    1  UNL1        0.0089
      6 C         140.4682  140.0279  161.6914 C.ar    1  UNL1       -0.0034
      7 C         141.0904  137.9478  155.1695 C.2     1  UNL1        0.2420
      8 O         139.8461  138.1760  154.3636 O.2     1  UNL1       -0.2734
      9 N         141.0687  138.1486  156.6558 N.am    1  UNL1       -0.2784
     10 C         142.3130  137.9204  157.4617 C.3     1  UNL1        0.0938
     11 C         142.2913  138.1212  158.9481 C.3     1  UNL1        0.0259
     12 C         141.0252  138.5501  159.6285 C.3     1  UNL1        0.0257
     13 C         139.7809  138.7782  158.8226 C.3     1  UNL1        0.0259
     14 C         139.8026  138.5775  157.3363 C.3     1  UNL1        0.0938
     15 C         142.3565  137.5189  154.4890 C.3     1  UNL1        0.1587
     16 C         143.5488  135.3086  155.1549 C.3     1  UNL1        0.0900
     17 N         142.6220  136.0624  154.2477 N.3     1  UNL1       -0.2626
     18 C         141.9606  135.3597  153.0993 C.3     1  UNL1        0.0900
     19 C         139.9112  141.5059  163.7543 C.2     1  UNL1       -0.0253
     20 C         140.8496  142.6234  164.1012 C.2     1  UNL1       -0.0303
     21 C         140.3144  143.9006  164.6778 C.3     1  UNL1        0.0257
     22 C         138.8407  144.0602  164.9074 C.3     1  UNL1        0.0050
     23 C         137.9022  142.9426  164.5605 C.3     1  UNL1        0.0050
     24 C         138.4375  141.6655  163.9839 C.3     1  UNL1        0.0261
     25 N         140.9382  139.3531  165.5739 N.am    1  UNL1       -0.2779
     26 C         142.2216  139.5640  166.3211 C.2     1  UNL1        0.2837
     27 O         143.5269  139.5741  165.5819 O.2     1  UNL1       -0.2665
     28 H         140.0816  139.3465  166.0590 H       1  UNL1        0.1553
     29 C         142.1999  139.7648  167.8074 C.ar    1  UNL1        0.1959
     30 N         141.3705  140.7706  168.5492 N.ar    1  UNL1       -0.2123
     31 C         141.6617  140.6224  170.0132 C.ar    1  UNL1        0.1678
     32 C         142.6712  139.5250  170.1762 C.ar    1  UNL1        0.1036
     33 N         143.0038  138.9948  168.8130 N.ar    1  UNL1       -0.3319
     34 H         143.6383  138.2691  168.6133 H       1  UNL1        0.1676
     35 C         141.0508  141.4299  171.1199 C.1     1  UNL1        0.1214
     36 N         140.4399  142.2373  172.2266 N.1     1  UNL1       -0.1892
@<TRIPOS>BOND
     1    16    17    1
     2    17    18    1
     3    17    15    1
     4    15     7    1
     5     7     8    2
     6     7     9   am
     7     9    10    1
     8    10    11    1
     9    11    12    1
    10    12     1    1
    11     1     2   ar
    12     2     3   ar
    13     3     4   ar
    14     4    25    1
    15    25    26   am
    16    26    27    2
    17    26    29    1
    18    29    30   ar
    19    30    31   ar
    20    31    35    1
    21    35    36    3
    22    31    32   ar
    23    32    33   ar
    24     4     5   ar
    25     5    19    1
    26    19    20    2
    27    20    21    1
    28    21    22    1
    29    22    23    1
    30    23    24    1
    31     5     6   ar
    32    12    13    1
    33    13    14    1
    34    14     9    1
    35     6     1   ar
    36    33    29   ar
    37    24    19    1
    38    25    28    1
    39    33    34    1
@<TRIPOS>MOLECULE
*****
 36 39 0 0 0
SMALL
GASTEIGER

@<TRIPOS>ATOM
      1 C         139.4455  139.5442  160.6177 C.ar    1  UNL1       -0.0223
      2 C         139.8282  138.3130  161.3843 C.ar    1  UNL1       -0.0030
      3 C         140.0330  138.3870  162.8684 C.ar    1  UNL1        0.0143
      4 C         139.8553  139.6922  163.5859 C.ar    1  UNL1        0.0502
      5 C         139.4726  140.9233  162.8193 C.ar    1  UNL1        0.0089
      6 C         139.2677  140.8493  161.3352 C.ar    1  UNL1       -0.0034
      7 C         138.6260  139.2482  154.6813 C.2     1  UNL1        0.2420
      8 O         139.2978  138.1696  153.8843 O.2     1  UNL1       -0.2734
      9 N         138.8309  139.3222  156.1654 N.am    1  UNL1       -0.2784
     10 C         138.1591  140.4008  156.9624 C.3     1  UNL1        0.0938
     11 C         138.3639  140.4748  158.4465 C.3     1  UNL1        0.0259
     12 C         139.2406  139.4702  159.1336 C.3     1  UNL1        0.0257
     13 C         139.9124  138.3916  158.3366 C.3     1  UNL1        0.0259
     14 C         139.7075  138.3176  156.8525 C.3     1  UNL1        0.0938
     15 C         137.7493  140.2528  153.9942 C.3     1  UNL1        0.1587
     16 C         136.0714  139.7416  152.0775 C.3     1  UNL1        0.0900
     17 N         136.3734  139.8626  153.5419 N.3     1  UNL1       -0.2626
     18 C         135.2995  139.5933  154.5538 C.3     1  UNL1        0.0900
     19 C         139.2948  142.2286  163.5368 C.2     1  UNL1       -0.0253
     20 C         137.9324  142.6484  164.0035 C.2     1  UNL1       -0.0303
     21 C         137.7546  143.9536  164.7210 C.3     1  UNL1        0.0257
     22 C         138.9392  144.8391  164.9718 C.3     1  UNL1        0.0050
     23 C         140.3015  144.4193  164.5051 C.3     1  UNL1        0.0050
     24 C         140.4793  143.1140  163.7876 C.3     1  UNL1        0.0261
     25 N         140.0601  139.7662  165.0700 N.am    1  UNL1       -0.2779
     26 C         141.4315  140.0103  165.6266 C.2     1  UNL1        0.2837
     27 O         142.5980  140.1805  164.6990 O.2     1  UNL1       -0.2665
     28 H         139.2945  139.6545  165.6788 H       1  UNL1        0.1553
     29 C         141.6364  140.0843  167.1107 C.ar    1  UNL1        0.1959
     30 N         140.9092  140.9931  168.0569 N.ar    1  UNL1       -0.2123
     31 C         141.4278  140.7330  169.4401 C.ar    1  UNL1        0.1678
     32 C         142.4755  139.6634  169.3488 C.ar    1  UNL1        0.1036
     33 N         142.6044  139.2624  167.9091 N.ar    1  UNL1       -0.3319
     34 H         143.2168  138.5797  167.5512 H       1  UNL1        0.1676
     35 C         140.9778  141.4215  170.6944 C.1     1  UNL1        0.1214
     36 N         140.5278  142.1100  171.9488 N.1     1  UNL1       -0.1892
@<TRIPOS>BOND
     1    16    17    1
     2    17    18    1
     3    17    15    1
     4    15     7    1
     5     7     8    2
     6     7     9   am
     7     9    10    1
     8    10    11    1
     9    11    12    1
    10    12     1    1
    11     1     2   ar
    12     2     3   ar
    13     3     4   ar
    14     4    25    1
    15    25    26   am
    16    26    27    2
    17    26    29    1
    18    29    30   ar
    19    30    31   ar
    20    31    35    1
    21    35    36    3
    22    31    32   ar
    23    32    33   ar
    24     4     5   ar
    25     5    19    1
    26    19    20    2
    27    20    21    1
    28    21    22    1
    29    22    23    1
    30    23    24    1
    31     5     6   ar
    32    12    13    1
    33    13    14    1
    34    14     9    1
    35     6     1   ar
    36    33    29   ar
    37    24    19    1
    38    25    28    1
    39    33    34    1
@<TRIPOS>MOLECULE
*****
 36 39 0 0 0
SMALL
GASTEIGER

@<TRIPOS>ATOM
      1 C         140.4738  139.1635  164.0456 C.ar    1  UNL1       -0.0223
      2 C         141.0059  137.8311  163.6080 C.ar    1  UNL1       -0.0030
      3 C         141.2448  137.5604  162.1521 C.ar    1  UNL1        0.0143
      4 C         140.9517  138.6221  161.1338 C.ar    1  UNL1        0.0502
      5 C         140.4196  139.9545  161.5715 C.ar    1  UNL1        0.0089
      6 C         140.1806  140.2252  163.0274 C.ar    1  UNL1       -0.0034
      7 C         139.5181  140.2464  169.8692 C.2     1  UNL1        0.2420
      8 O         138.1766  139.9586  170.4753 O.2     1  UNL1       -0.2734
      9 N         139.7571  139.9757  168.4133 N.am    1  UNL1       -0.2784
     10 C         141.0986  140.2635  167.8072 C.3     1  UNL1        0.0938
     11 C         141.3375  139.9928  166.3513 C.3     1  UNL1        0.0259
     12 C         140.2349  139.4342  165.5015 C.3     1  UNL1        0.0257
     13 C         138.8934  139.1464  166.1076 C.3     1  UNL1        0.0259
     14 C         138.6544  139.4171  167.5635 C.3     1  UNL1        0.0938
     15 C         140.6208  140.8049  170.7190 C.3     1  UNL1        0.1587
     16 C         140.0365  143.3046  170.3185 C.3     1  UNL1        0.0900
     17 N         141.0579  142.2286  170.5399 N.3     1  UNL1       -0.2626
     18 C         142.5164  142.5763  170.5823 C.3     1  UNL1        0.0900
     19 C         140.1264  141.0162  160.5532 C.2     1  UNL1       -0.0253
     20 C         138.7718  141.0877  159.9129 C.2     1  UNL1       -0.0303
     21 C         138.4785  142.1493  158.8947 C.3     1  UNL1        0.0257
     22 C         139.5399  143.1396  158.5167 C.3     1  UNL1        0.0050
     23 C         140.8945  143.0682  159.1570 C.3     1  UNL1        0.0050
     24 C         141.1877  142.0064  160.1753 C.3     1  UNL1        0.0261
     25 N         141.1906  138.3513  159.6779 N.am    1  UNL1       -0.2779
     26 C         142.5921  138.2243  159.1588 C.2     1  UNL1        0.2837
     27 O         143.7548  138.3679  160.0957 O.2     1  UNL1       -0.2665
     28 H         140.4275  138.2571  159.0631 H       1  UNL1        0.1553
     29 C         142.8310  137.9535  157.7030 C.ar    1  UNL1        0.1959
     30 N         142.3051  136.7833  156.9258 N.ar    1  UNL1       -0.2123
     31 C         142.7868  136.9120  155.5111 C.ar    1  UNL1        0.1678
     32 C         143.6106  138.1618  155.4139 C.ar    1  UNL1        0.1036
     33 N         143.6379  138.8056  156.7685 N.ar    1  UNL1       -0.3319
     34 H         144.1036  139.6406  157.0031 H       1  UNL1        0.1676
     35 C         142.4960  135.9585  154.3905 C.1     1  UNL1        0.1214
     36 N         142.2051  135.0049  153.2697 N.1     1  UNL1       -0.1892
@<TRIPOS>BOND
     1    16    17    1
     2    17    18    1
     3    17    15    1
     4    15     7    1
     5     7     8    2
     6     7     9   am
     7     9    10    1
     8    10    11    1
     9    11    12    1
    10    12     1    1
    11     1     2   ar
    12     2     3   ar
    13     3     4   ar
    14     4    25    1
    15    25    26   am
    16    26    27    2
    17    26    29    1
    18    29    30   ar
    19    30    31   ar
    20    31    35    1
    21    35    36    3
    22    31    32   ar
    23    32    33   ar
    24     4     5   ar
    25     5    19    1
    26    19    20    2
    27    20    21    1
    28    21    22    1
    29    22    23    1
    30    23    24    1
    31     5     6   ar
    32    12    13    1
    33    13    14    1
    34    14     9    1
    35     6     1   ar
    36    33    29   ar
    37    24    19    1
    38    25    28    1
    39    33    34    1
@<TRIPOS>MOLECULE
*****
 36 39 0 0 0
SMALL
GASTEIGER

@<TRIPOS>ATOM
      1 C         140.3354  139.2396  164.0360 C.ar    1  UNL1       -0.0223
      2 C         139.9294  137.9466  163.3931 C.ar    1  UNL1       -0.0030
      3 C         140.1835  137.7233  161.9318 C.ar    1  UNL1        0.0143
      4 C         140.8437  138.7930  161.1133 C.ar    1  UNL1        0.0502
      5 C         141.2498  140.0860  161.7562 C.ar    1  UNL1        0.0089
      6 C         140.9956  140.3093  163.2176 C.ar    1  UNL1       -0.0034
      7 C         139.3186  140.1328  169.8814 C.2     1  UNL1        0.2420
      8 O         137.9607  139.8591  170.4569 O.2     1  UNL1       -0.2734
      9 N         139.5728  139.9095  168.4200 N.am    1  UNL1       -0.2784
     10 C         140.9307  140.1832  167.8446 C.3     1  UNL1        0.0938
     11 C         141.1848  139.9599  166.3832 C.3     1  UNL1        0.0259
     12 C         140.0812  139.4629  165.4974 C.3     1  UNL1        0.0257
     13 C         138.7233  139.1892  166.0728 C.3     1  UNL1        0.0259
     14 C         138.4691  139.4125  167.5342 C.3     1  UNL1        0.0938
     15 C         140.4223  140.6298  170.7673 C.3     1  UNL1        0.1587
     16 C         139.7915  143.1470  170.6412 C.3     1  UNL1        0.0900
     17 N         140.8342  142.0712  170.7153 N.3     1  UNL1       -0.2626
     18 C         142.2888  142.4367  170.7373 C.3     1  UNL1        0.0900
     19 C         141.9100  141.1557  160.9378 C.2     1  UNL1       -0.0253
     20 C         141.0742  142.1688  160.2132 C.2     1  UNL1       -0.0303
     21 C         141.7343  143.2386  159.3948 C.3     1  UNL1        0.0257
     22 C         143.2304  143.2952  159.3009 C.3     1  UNL1        0.0050
     23 C         144.0662  142.2821  160.0255 C.3     1  UNL1        0.0050
     24 C         143.4059  141.2123  160.8439 C.3     1  UNL1        0.0261
     25 N         141.0979  138.5697  159.6520 N.am    1  UNL1       -0.2779
     26 C         142.4167  138.0197  159.1956 C.2     1  UNL1        0.2837
     27 O         143.4813  137.6930  160.2005 O.2     1  UNL1       -0.2665
     28 H         140.3992  138.7842  158.9924 H       1  UNL1        0.1553
     29 C         142.6709  137.7964  157.7342 C.ar    1  UNL1        0.1959
     30 N         142.0340  136.7408  156.8797 N.ar    1  UNL1       -0.2123
     31 C         142.5761  136.8815  155.4882 C.ar    1  UNL1        0.1678
     32 C         143.5480  138.0241  155.4827 C.ar    1  UNL1        0.1036
     33 N         143.6066  138.5896  156.8708 N.ar    1  UNL1       -0.3319
     34 H         144.1617  139.3481  157.1637 H       1  UNL1        0.1676
     35 C         142.2106  136.0293  154.3092 C.1     1  UNL1        0.1214
     36 N         141.8450  135.1772  153.1302 N.1     1  UNL1       -0.1892
@<TRIPOS>BOND
     1    16    17    1
     2    17    18    1
     3    17    15    1
     4    15     7    1
     5     7     8    2
     6     7     9   am
     7     9    10    1
     8    10    11    1
     9    11    12    1
    10    12     1    1
    11     1     2   ar
    12     2     3   ar
    13     3     4   ar
    14     4    25    1
    15    25    26   am
    16    26    27    2
    17    26    29    1
    18    29    30   ar
    19    30    31   ar
    20    31    35    1
    21    35    36    3
    22    31    32   ar
    23    32    33   ar
    24     4     5   ar
    25     5    19    1
    26    19    20    2
    27    20    21    1
    28    21    22    1
    29    22    23    1
    30    23    24    1
    31     5     6   ar
    32    12    13    1
    33    13    14    1
    34    14     9    1
    35     6     1   ar
    36    33    29   ar
    37    24    19    1
    38    25    28    1
    39    33    34    1
@<TRIPOS>MOLECULE
*****
 36 39 0 0 0
SMALL
GASTEIGER

@<TRIPOS>ATOM
      1 C         143.7086  141.3177  160.8298 C.ar    1  UNL1       -0.0223
      2 C         144.4437  142.1649  161.8256 C.ar    1  UNL1       -0.0030
      3 C         144.0613  142.1205  163.2754 C.ar    1  UNL1        0.0143
      4 C         142.9439  141.2287  163.7293 C.ar    1  UNL1        0.0502
      5 C         142.2089  140.3814  162.7335 C.ar    1  UNL1        0.0089
      6 C         142.5912  140.4259  161.2837 C.ar    1  UNL1       -0.0034
      7 C         145.2380  141.4956  155.0307 C.2     1  UNL1        0.2420
      8 O         144.8799  140.3546  154.1253 O.2     1  UNL1       -0.2734
      9 N         144.8556  141.4511  156.4805 N.am    1  UNL1       -0.2784
     10 C         145.2137  142.5921  157.3859 C.3     1  UNL1        0.0938
     11 C         144.8314  142.5476  158.8357 C.3     1  UNL1        0.0259
     12 C         144.0910  141.3621  159.3800 C.3     1  UNL1        0.0257
     13 C         143.7329  140.2212  158.4746 C.3     1  UNL1        0.0259
     14 C         144.1152  140.2656  157.0248 C.3     1  UNL1        0.0938
     15 C         145.9784  142.6811  154.4864 C.3     1  UNL1        0.1587
     16 C         148.2015  143.5813  153.4875 C.3     1  UNL1        0.0900
     17 N         147.4774  142.6694  154.4332 N.3     1  UNL1       -0.2626
     18 C         148.2524  141.7458  155.3256 C.3     1  UNL1        0.0900
     19 C         141.0914  139.4896  163.1874 C.2     1  UNL1       -0.0253
     20 C         141.3709  138.0599  163.5451 C.2     1  UNL1       -0.0303
     21 C         140.2536  137.1681  163.9990 C.3     1  UNL1        0.0257
     22 C         138.8565  137.7059  164.0952 C.3     1  UNL1        0.0050
     23 C         138.5770  139.1355  163.7374 C.3     1  UNL1        0.0050
     24 C         139.6945  140.0274  163.2835 C.3     1  UNL1        0.0261
     25 N         142.5616  141.1842  165.1791 N.am    1  UNL1       -0.2779
     26 C         143.1075  140.1046  166.0659 C.2     1  UNL1        0.2837
     27 O         144.0358  139.0695  165.5030 O.2     1  UNL1       -0.2665
     28 H         141.9523  141.8636  165.5486 H       1  UNL1        0.1553
     29 C         142.7251  140.0602  167.5157 C.ar    1  UNL1        0.1959
     30 N         142.0075  141.1387  168.2718 N.ar    1  UNL1       -0.2123
     31 C         141.8322  140.6745  169.6873 C.ar    1  UNL1        0.1678
     32 C         142.4414  139.3089  169.8061 C.ar    1  UNL1        0.1036
     33 N         142.9933  138.9292  168.4640 N.ar    1  UNL1       -0.3319
     34 H         143.4512  138.0858  168.2441 H       1  UNL1        0.1676
     35 C         141.1648  141.4411  170.7904 C.1     1  UNL1        0.1214
     36 N         140.4973  142.2076  171.8935 N.1     1  UNL1       -0.1892
@<TRIPOS>BOND
     1    16    17    1
     2    17    18    1
     3    17    15    1
     4    15     7    1
     5     7     8    2
     6     7     9   am
     7     9    10    1
     8    10    11    1
     9    11    12    1
    10    12     1    1
    11     1     2   ar
    12     2     3   ar
    13     3     4   ar
    14     4    25    1
    15    25    26   am
    16    26    27    2
    17    26    29    1
    18    29    30   ar
    19    30    31   ar
    20    31    35    1
    21    35    36    3
    22    31    32   ar
    23    32    33   ar
    24     4     5   ar
    25     5    19    1
    26    19    20    2
    27    20    21    1
    28    21    22    1
    29    22    23    1
    30    23    24    1
    31     5     6   ar
    32    12    13    1
    33    13    14    1
    34    14     9    1
    35     6     1   ar
    36    33    29   ar
    37    24    19    1
    38    25    28    1
    39    33    34    1
@<TRIPOS>MOLECULE
*****
 36 39 0 0 0
SMALL
GASTEIGER

@<TRIPOS>ATOM
      1 C         143.3986  142.5084  160.7850 C.ar    1  UNL1       -0.0223
      2 C         144.5306  141.9721  161.6101 C.ar    1  UNL1       -0.0030
      3 C         144.3656  141.8052  163.0916 C.ar    1  UNL1        0.0143
      4 C         143.0685  142.1747  163.7481 C.ar    1  UNL1        0.0502
      5 C         141.9364  142.7110  162.9230 C.ar    1  UNL1        0.0089
      6 C         142.1015  142.8778  161.4415 C.ar    1  UNL1       -0.0034
      7 C         144.0589  143.1758  154.8589 C.2     1  UNL1        0.2420
      8 O         143.0130  143.9004  154.0647 O.2     1  UNL1       -0.2734
      9 N         143.8938  143.0089  156.3405 N.am    1  UNL1       -0.2784
     10 C         144.9398  142.2844  157.1348 C.3     1  UNL1        0.0938
     11 C         144.7747  142.1175  158.6163 C.3     1  UNL1        0.0259
     12 C         143.5637  142.6752  159.3035 C.3     1  UNL1        0.0257
     13 C         142.5177  143.3998  158.5092 C.3     1  UNL1        0.0259
     14 C         142.6828  143.5667  157.0277 C.3     1  UNL1        0.0938
     15 C         145.2699  142.6181  154.1717 C.3     1  UNL1        0.1587
     16 C         147.8428  142.9296  154.3550 C.3     1  UNL1        0.0900
     17 N         146.4911  143.4709  153.9944 N.3     1  UNL1       -0.2626
     18 C         146.3606  144.8651  153.4566 C.3     1  UNL1        0.0900
     19 C         140.6392  143.0805  163.5794 C.2     1  UNL1       -0.0253
     20 C         140.4337  144.4703  164.1049 C.2     1  UNL1       -0.0303
     21 C         139.1366  144.8398  164.7613 C.3     1  UNL1        0.0257
     22 C         138.0449  143.8195  164.8922 C.3     1  UNL1        0.0050
     23 C         138.2504  142.4296  164.3668 C.3     1  UNL1        0.0050
     24 C         139.5476  142.0601  163.7103 C.3     1  UNL1        0.0261
     25 N         142.9034  142.0078  165.2296 N.am    1  UNL1       -0.2779
     26 C         142.5147  140.6742  165.7954 C.2     1  UNL1        0.2837
     27 O         142.2911  139.5073  164.8798 O.2     1  UNL1       -0.2665
     28 H         143.0501  142.7737  165.8306 H       1  UNL1        0.1553
     29 C         142.3496  140.5073  167.2770 C.ar    1  UNL1        0.1959
     30 N         141.6120  141.4389  168.1924 N.ar    1  UNL1       -0.2123
     31 C         141.6997  140.8869  169.5844 C.ar    1  UNL1        0.1678
     32 C         142.4915  139.6142  169.5293 C.ar    1  UNL1        0.1036
     33 N         142.8932  139.3795  168.1032 N.ar    1  UNL1       -0.3319
     34 H         143.4210  138.6188  167.7684 H       1  UNL1        0.1676
     35 C         141.1007  141.5000  170.8153 C.1     1  UNL1        0.1214
     36 N         140.5017  142.1130  172.0463 N.1     1  UNL1       -0.1892
@<TRIPOS>BOND
     1    16    17    1
     2    17    18    1
     3    17    15    1
     4    15     7    1
     5     7     8    2
     6     7     9   am
     7     9    10    1
     8    10    11    1
     9    11    12    1
    10    12     1    1
    11     1     2   ar
    12     2     3   ar
    13     3     4   ar
    14     4    25    1
    15    25    26   am
    16    26    27    2
    17    26    29    1
    18    29    30   ar
    19    30    31   ar
    20    31    35    1
    21    35    36    3
    22    31    32   ar
    23    32    33   ar
    24     4     5   ar
    25     5    19    1
    26    19    20    2
    27    20    21    1
    28    21    22    1
    29    22    23    1
    30    23    24    1
    31     5     6   ar
    32    12    13    1
    33    13    14    1
    34    14     9    1
    35     6     1   ar
    36    33    29   ar
    37    24    19    1
    38    25    28    1
    39    33    34    1
@<TRIPOS>MOLECULE
*****
 36 39 0 0 0
SMALL
GASTEIGER

@<TRIPOS>ATOM
      1 C         143.4944  141.3938  160.7726 C.ar    1  UNL1       -0.0223
      2 C         144.2733  140.7295  161.8689 C.ar    1  UNL1       -0.0030
      3 C         143.7598  140.7593  163.2779 C.ar    1  UNL1        0.0143
      4 C         142.4674  141.4534  163.5907 C.ar    1  UNL1        0.0502
      5 C         141.6885  142.1177  162.4943 C.ar    1  UNL1        0.0089
      6 C         142.2020  142.0879  161.0853 C.ar    1  UNL1       -0.0034
      7 C         145.5485  141.2747  155.1364 C.2     1  UNL1        0.2420
      8 O         145.2466  140.1008  154.2528 O.2     1  UNL1       -0.2734
      9 N         145.0350  141.3045  156.5454 N.am    1  UNL1       -0.2784
     10 C         145.3370  142.4783  157.4291 C.3     1  UNL1        0.0938
     11 C         144.8234  142.5081  158.8381 C.3     1  UNL1        0.0259
     12 C         144.0079  141.3640  159.3635 C.3     1  UNL1        0.0257
     13 C         143.7060  140.1902  158.4799 C.3     1  UNL1        0.0259
     14 C         144.2195  140.1604  157.0708 C.3     1  UNL1        0.0938
     15 C         146.3640  142.4187  154.6110 C.3     1  UNL1        0.1587
     16 C         148.5038  142.5825  153.1465 C.3     1  UNL1        0.0900
     17 N         147.8494  142.2742  154.4607 N.3     1  UNL1       -0.2626
     18 C         148.6805  141.8215  155.6244 C.3     1  UNL1        0.0900
     19 C         140.3960  142.8118  162.8070 C.2     1  UNL1       -0.0253
     20 C         139.0905  142.1319  162.5182 C.2     1  UNL1       -0.0303
     21 C         137.7981  142.8259  162.8309 C.3     1  UNL1        0.0257
     22 C         137.8110  144.2000  163.4323 C.3     1  UNL1        0.0050
     23 C         139.1165  144.8800  163.7211 C.3     1  UNL1        0.0050
     24 C         140.4090  144.1859  163.4085 C.3     1  UNL1        0.0261
     25 N         141.9538  141.4832  164.9997 N.am    1  UNL1       -0.2779
     26 C         140.9790  140.4424  165.4649 C.2     1  UNL1        0.2837
     27 O         140.5177  139.3717  164.5209 O.2     1  UNL1       -0.2665
     28 H         142.2566  142.1859  165.6192 H       1  UNL1        0.1553
     29 C         140.4655  140.4722  166.8739 C.ar    1  UNL1        0.1959
     30 N         141.0306  141.2844  168.0013 N.ar    1  UNL1       -0.2123
     31 C         140.2111  141.0092  169.2271 C.ar    1  UNL1        0.1678
     32 C         139.1395  140.0269  168.8573 C.ar    1  UNL1        0.1036
     33 N         139.2967  139.6949  167.4030 N.ar    1  UNL1       -0.3319
     34 H         138.7319  139.0757  166.8864 H       1  UNL1        0.1676
     35 C         140.4254  141.6106  170.5844 C.1     1  UNL1        0.1214
     36 N         140.6398  142.2120  171.9417 N.1     1  UNL1       -0.1892
@<TRIPOS>BOND
     1    16    17    1
     2    17    18    1
     3    17    15    1
     4    15     7    1
     5     7     8    2
     6     7     9   am
     7     9    10    1
     8    10    11    1
     9    11    12    1
    10    12     1    1
    11     1     2   ar
    12     2     3   ar
    13     3     4   ar
    14     4    25    1
    15    25    26   am
    16    26    27    2
    17    26    29    1
    18    29    30   ar
    19    30    31   ar
    20    31    35    1
    21    35    36    3
    22    31    32   ar
    23    32    33   ar
    24     4     5   ar
    25     5    19    1
    26    19    20    2
    27    20    21    1
    28    21    22    1
    29    22    23    1
    30    23    24    1
    31     5     6   ar
    32    12    13    1
    33    13    14    1
    34    14     9    1
    35     6     1   ar
    36    33    29   ar
    37    24    19    1
    38    25    28    1
    39    33    34    1
