@<TRIPOS>MOLECULE
*****
 24 26 0 0 0
SMALL
GASTEIGER

@<TRIPOS>ATOM
      1 N         141.9257  142.2475  165.5131 N.3     1  UNL1       -0.3206
      2 C         142.0134  140.8811  164.9004 C.3     1  UNL1        0.0750
      3 C         142.3530  140.7311  163.4471 C.3     1  UNL1        0.1079
      4 N         142.4407  139.3647  162.8345 N.pl3   1  UNL1       -0.2918
      5 C         142.1888  138.1483  163.6752 C.3     1  UNL1        0.0926
      6 C         141.8492  138.2983  165.1285 C.3     1  UNL1        0.0273
      7 C         141.7615  139.6647  165.7411 C.3     1  UNL1        0.0422
      8 H         142.1248  142.9519  164.8028 H       1  UNL1        0.1189
      9 H         142.6059  142.3254  166.2692 H       1  UNL1        0.1189
     10 C         141.4219  139.8146  167.1945 C.ar    1  UNL1        0.0087
     11 C         142.4990  139.6995  168.2321 C.ar    1  UNL1        0.0300
     12 C         142.1594  139.8494  169.6854 C.ar    1  UNL1        0.1672
     13 F         143.2365  139.7344  170.7230 F       1  UNL1       -0.2018
     14 C         140.7427  140.1144  170.1012 C.ar    1  UNL1        0.1696
     15 F         140.4032  140.2643  171.5545 F       1  UNL1       -0.2017
     16 C         139.6656  140.2295  169.0636 C.ar    1  UNL1        0.0612
     17 C         140.0053  140.0795  167.6102 C.ar    1  UNL1        0.1386
     18 F         138.9282  140.1946  166.5726 F       1  UNL1       -0.2044
     19 C         142.7803  139.2148  161.3811 C.ar    1  UNL1        0.1351
     20 C         142.4121  137.9575  160.6507 C.ar    1  UNL1        0.0550
     21 C         142.7517  137.8075  159.1974 C.ar    1  UNL1        0.1036
     22 N         143.4595  138.9150  158.4744 N.ar    1  UNL1       -0.2223
     23 C         143.8277  140.1723  159.2048 C.ar    1  UNL1        0.2001
     24 N         143.4881  140.3222  160.6582 N.ar    1  UNL1       -0.2090
@<TRIPOS>BOND
     1     2     1    1
     2     2     3    1
     3     3     4    1
     4     4    19    1
     5    19    20   ar
     6    20    21   ar
     7    21    22   ar
     8    22    23   ar
     9    23    24   ar
    10     4     5    1
    11     5     6    1
    12     6     7    1
    13     7    10    1
    14    10    11   ar
    15    11    12   ar
    16    12    13    1
    17    12    14   ar
    18    14    15    1
    19    14    16   ar
    20    16    17   ar
    21    17    18    1
    22     7     2    1
    23    17    10   ar
    24    24    19   ar
    25     1     8    1
    26     1     9    1
@<TRIPOS>MOLECULE
*****
 24 26 0 0 0
SMALL
GASTEIGER

@<TRIPOS>ATOM
      1 N         136.8627  141.3437  163.1984 N.3     1  UNL1       -0.3206
      2 C         137.8747  140.5434  162.4333 C.3     1  UNL1        0.0750
      3 C         137.8258  140.5089  160.9345 C.3     1  UNL1        0.1079
      4 N         138.8378  139.7086  160.1693 N.pl3   1  UNL1       -0.2918
      5 C         139.8985  138.9427  160.9029 C.3     1  UNL1        0.0926
      6 C         139.9474  138.9772  162.4017 C.3     1  UNL1        0.0273
      7 C         138.9354  139.7775  163.1668 C.3     1  UNL1        0.0422
      8 H         136.2227  141.7958  162.5455 H       1  UNL1        0.1189
      9 H         137.3402  142.0539  163.7534 H       1  UNL1        0.1189
     10 C         138.9843  139.8120  164.6657 C.ar    1  UNL1        0.0087
     11 C         138.0592  138.9441  165.4664 C.ar    1  UNL1        0.0300
     12 C         138.1081  138.9786  166.9652 C.ar    1  UNL1        0.1672
     13 F         137.1830  138.1107  167.7659 F       1  UNL1       -0.2018
     14 C         139.0820  139.8808  167.6633 C.ar    1  UNL1        0.1696
     15 F         139.1309  139.9152  169.1621 F       1  UNL1       -0.2017
     16 C         140.0071  140.7486  166.8627 C.ar    1  UNL1        0.0612
     17 C         139.9583  140.7142  165.3638 C.ar    1  UNL1        0.1386
     18 F         140.8834  141.5820  164.5631 F       1  UNL1       -0.2044
     19 C         138.7889  139.6741  158.6704 C.ar    1  UNL1        0.1351
     20 C         139.7593  138.8216  157.9078 C.ar    1  UNL1        0.0550
     21 C         139.7104  138.7871  156.4090 C.ar    1  UNL1        0.1036
     22 N         138.6912  139.6052  155.6728 N.ar    1  UNL1       -0.2223
     23 C         137.7208  140.4577  156.4354 C.ar    1  UNL1        0.2001
     24 N         137.7697  140.4921  157.9343 N.ar    1  UNL1       -0.2090
@<TRIPOS>BOND
     1     2     1    1
     2     2     3    1
     3     3     4    1
     4     4    19    1
     5    19    20   ar
     6    20    21   ar
     7    21    22   ar
     8    22    23   ar
     9    23    24   ar
    10     4     5    1
    11     5     6    1
    12     6     7    1
    13     7    10    1
    14    10    11   ar
    15    11    12   ar
    16    12    13    1
    17    12    14   ar
    18    14    15    1
    19    14    16   ar
    20    16    17   ar
    21    17    18    1
    22     7     2    1
    23    17    10   ar
    24    24    19   ar
    25     1     8    1
    26     1     9    1
@<TRIPOS>MOLECULE
*****
 24 26 0 0 0
SMALL
GASTEIGER

@<TRIPOS>ATOM
      1 N         141.9830  141.9931  163.6884 N.3     1  UNL1       -0.3206
      2 C         142.1209  141.0901  164.8782 C.3     1  UNL1        0.0750
      3 C         142.0158  141.6542  166.2641 C.3     1  UNL1        0.1079
      4 N         142.1538  140.7512  167.4538 N.pl3   1  UNL1       -0.2918
      5 C         142.3968  139.2841  167.2577 C.3     1  UNL1        0.0926
      6 C         142.5018  138.7200  165.8718 C.3     1  UNL1        0.0273
      7 C         142.3639  139.6230  164.6821 C.3     1  UNL1        0.0422
      8 H         141.8229  142.9497  164.0043 H       1  UNL1        0.1189
      9 H         141.1944  141.6868  163.1187 H       1  UNL1        0.1189
     10 C         142.4690  139.0588  163.2961 C.ar    1  UNL1        0.0087
     11 C         141.2260  138.7725  162.5067 C.ar    1  UNL1        0.0300
     12 C         141.3310  138.2084  161.1209 C.ar    1  UNL1        0.1672
     13 F         140.0881  137.9221  160.3315 F       1  UNL1       -0.2018
     14 C         142.6790  137.9305  160.5243 C.ar    1  UNL1        0.1696
     15 F         142.7841  137.3664  159.1385 F       1  UNL1       -0.2017
     16 C         143.9220  138.2168  161.3137 C.ar    1  UNL1        0.0612
     17 C         143.8169  138.7810  162.6997 C.ar    1  UNL1        0.1386
     18 F         145.0598  139.0673  163.4891 F       1  UNL1       -0.2044
     19 C         142.0487  141.3154  168.8398 C.ar    1  UNL1        0.1351
     20 C         142.8757  142.5044  169.2302 C.ar    1  UNL1        0.0550
     21 C         142.7706  143.0686  170.6160 C.ar    1  UNL1        0.1036
     22 N         141.8386  142.4437  171.6116 N.ar    1  UNL1       -0.2223
     23 C         141.0116  141.2547  171.2212 C.ar    1  UNL1        0.2001
     24 N         141.1167  140.6906  169.8352 N.ar    1  UNL1       -0.2090
@<TRIPOS>BOND
     1     2     1    1
     2     2     3    1
     3     3     4    1
     4     4    19    1
     5    19    20   ar
     6    20    21   ar
     7    21    22   ar
     8    22    23   ar
     9    23    24   ar
    10     4     5    1
    11     5     6    1
    12     6     7    1
    13     7    10    1
    14    10    11   ar
    15    11    12   ar
    16    12    13    1
    17    12    14   ar
    18    14    15    1
    19    14    16   ar
    20    16    17   ar
    21    17    18    1
    22     7     2    1
    23    17    10   ar
    24    24    19   ar
    25     1     8    1
    26     1     9    1
@<TRIPOS>MOLECULE
*****
 24 26 0 0 0
SMALL
GASTEIGER

@<TRIPOS>ATOM
      1 N         141.8144  139.0407  165.8356 N.3     1  UNL1       -0.3206
      2 C         140.7110  139.7313  165.0902 C.3     1  UNL1        0.0750
      3 C         140.5134  139.4657  163.6272 C.3     1  UNL1        0.1079
      4 N         139.4100  140.1562  162.8819 N.pl3   1  UNL1       -0.2918
      5 C         138.5041  141.1124  163.5995 C.3     1  UNL1        0.0926
      6 C         138.7016  141.3780  165.0625 C.3     1  UNL1        0.0273
      7 C         139.8051  140.6875  165.8079 C.3     1  UNL1        0.0422
      8 H         142.3267  138.4320  165.1973 H       1  UNL1        0.1189
      9 H         141.4170  138.4833  166.5917 H       1  UNL1        0.1189
     10 C         140.0026  140.9531  167.2709 C.ar    1  UNL1        0.0087
     11 C         140.9350  142.0404  167.7165 C.ar    1  UNL1        0.0300
     12 C         141.1325  142.3061  169.1795 C.ar    1  UNL1        0.1672
     13 F         142.0649  143.3933  169.6251 F       1  UNL1       -0.2018
     14 C         140.3977  141.4845  170.1970 C.ar    1  UNL1        0.1696
     15 F         140.5953  141.7502  171.6599 F       1  UNL1       -0.2017
     16 C         139.4654  140.3972  169.7513 C.ar    1  UNL1        0.0612
     17 C         139.2678  140.1316  168.2883 C.ar    1  UNL1        0.1386
     18 F         138.3355  139.0443  167.8427 F       1  UNL1       -0.2044
     19 C         139.2124  139.8905  161.4188 C.ar    1  UNL1        0.1351
     20 C         138.1629  140.6423  160.6551 C.ar    1  UNL1        0.0550
     21 C         137.9653  140.3767  159.1921 C.ar    1  UNL1        0.1036
     22 N         138.8173  139.3592  158.4928 N.ar    1  UNL1       -0.2223
     23 C         139.8668  138.6074  159.2565 C.ar    1  UNL1        0.2001
     24 N         140.0644  138.8731  160.7196 N.ar    1  UNL1       -0.2090
@<TRIPOS>BOND
     1     2     1    1
     2     2     3    1
     3     3     4    1
     4     4    19    1
     5    19    20   ar
     6    20    21   ar
     7    21    22   ar
     8    22    23   ar
     9    23    24   ar
    10     4     5    1
    11     5     6    1
    12     6     7    1
    13     7    10    1
    14    10    11   ar
    15    11    12   ar
    16    12    13    1
    17    12    14   ar
    18    14    15    1
    19    14    16   ar
    20    16    17   ar
    21    17    18    1
    22     7     2    1
    23    17    10   ar
    24    24    19   ar
    25     1     8    1
    26     1     9    1
@<TRIPOS>MOLECULE
*****
 24 26 0 0 0
SMALL
GASTEIGER

@<TRIPOS>ATOM
      1 N         141.7116  141.7126  164.6863 N.3     1  UNL1       -0.3206
      2 C         141.4849  140.3277  164.1566 C.3     1  UNL1        0.0750
      3 C         141.5004  140.0785  162.6776 C.3     1  UNL1        0.1079
      4 N         141.2737  138.6935  162.1479 N.pl3   1  UNL1       -0.2918
      5 C         141.0315  137.5578  163.0973 C.3     1  UNL1        0.0926
      6 C         141.0160  137.8070  164.5763 C.3     1  UNL1        0.0273
      7 C         141.2427  139.1919  165.1060 C.3     1  UNL1        0.0422
      8 H         141.8584  142.3547  163.9075 H       1  UNL1        0.1189
      9 H         142.5344  141.7156  165.2891 H       1  UNL1        0.1189
     10 C         141.2272  139.4410  166.5851 C.ar    1  UNL1        0.0087
     11 C         139.9511  139.8399  167.2652 C.ar    1  UNL1        0.0300
     12 C         139.9356  140.0890  168.7442 C.ar    1  UNL1        0.1672
     13 F         138.6594  140.4878  169.4242 F       1  UNL1       -0.2018
     14 C         141.1962  139.9393  169.5433 C.ar    1  UNL1        0.1696
     15 F         141.1806  140.1885  171.0224 F       1  UNL1       -0.2017
     16 C         142.4723  139.5405  168.8633 C.ar    1  UNL1        0.0612
     17 C         142.4878  139.2914  167.3842 C.ar    1  UNL1        0.1386
     18 F         143.7639  138.8925  166.7041 F       1  UNL1       -0.2044
     19 C         141.2892  138.4444  160.6688 C.ar    1  UNL1        0.1351
     20 C         142.5632  138.0361  159.9903 C.ar    1  UNL1        0.0550
     21 C         142.5787  137.7870  158.5113 C.ar    1  UNL1        0.1036
     22 N         141.3203  137.9461  157.7106 N.ar    1  UNL1       -0.2223
     23 C         140.0463  138.3544  158.3890 C.ar    1  UNL1        0.2001
     24 N         140.0308  138.6036  159.8682 N.ar    1  UNL1       -0.2090
@<TRIPOS>BOND
     1     2     1    1
     2     2     3    1
     3     3     4    1
     4     4    19    1
     5    19    20   ar
     6    20    21   ar
     7    21    22   ar
     8    22    23   ar
     9    23    24   ar
    10     4     5    1
    11     5     6    1
    12     6     7    1
    13     7    10    1
    14    10    11   ar
    15    11    12   ar
    16    12    13    1
    17    12    14   ar
    18    14    15    1
    19    14    16   ar
    20    16    17   ar
    21    17    18    1
    22     7     2    1
    23    17    10   ar
    24    24    19   ar
    25     1     8    1
    26     1     9    1
@<TRIPOS>MOLECULE
*****
 24 26 0 0 0
SMALL
GASTEIGER

@<TRIPOS>ATOM
      1 N         140.4456  142.6705  165.3150 N.3     1  UNL1       -0.3206
      2 C         141.2901  141.4541  165.0759 C.3     1  UNL1        0.0750
      3 C         141.6390  141.0469  163.6751 C.3     1  UNL1        0.1079
      4 N         142.4835  139.8304  163.4360 N.pl3   1  UNL1       -0.2918
      5 C         142.9790  139.0212  164.5977 C.3     1  UNL1        0.0926
      6 C         142.6300  139.4284  165.9985 C.3     1  UNL1        0.0273
      7 C         141.7856  140.6449  166.2376 C.3     1  UNL1        0.0422
      8 H         140.2000  143.0951  164.4207 H       1  UNL1        0.1189
      9 H         140.9681  143.3418  165.8779 H       1  UNL1        0.1189
     10 C         141.4366  141.0521  167.6385 C.ar    1  UNL1        0.0087
     11 C         140.1872  140.5284  168.2826 C.ar    1  UNL1        0.0300
     12 C         139.8383  140.9356  169.6834 C.ar    1  UNL1        0.1672
     13 F         138.5889  140.4119  170.3275 F       1  UNL1       -0.2018
     14 C         140.7387  141.8665  170.4403 C.ar    1  UNL1        0.1696
     15 F         140.3898  142.2737  171.8411 F       1  UNL1       -0.2017
     16 C         141.9881  142.3902  169.7962 C.ar    1  UNL1        0.0612
     17 C         142.3370  141.9829  168.3953 C.ar    1  UNL1        0.1386
     18 F         143.5864  142.5066  167.7512 F       1  UNL1       -0.2044
     19 C         142.8324  139.4232  162.0350 C.ar    1  UNL1        0.1351
     20 C         142.5919  138.0137  161.5818 C.ar    1  UNL1        0.0550
     21 C         142.9408  137.6064  160.1810 C.ar    1  UNL1        0.1036
     22 N         143.5303  138.6087  159.2333 N.ar    1  UNL1       -0.2223
     23 C         143.7708  140.0182  159.6865 C.ar    1  UNL1        0.2001
     24 N         143.4219  140.4255  161.0875 N.ar    1  UNL1       -0.2090
@<TRIPOS>BOND
     1     2     1    1
     2     2     3    1
     3     3     4    1
     4     4    19    1
     5    19    20   ar
     6    20    21   ar
     7    21    22   ar
     8    22    23   ar
     9    23    24   ar
    10     4     5    1
    11     5     6    1
    12     6     7    1
    13     7    10    1
    14    10    11   ar
    15    11    12   ar
    16    12    13    1
    17    12    14   ar
    18    14    15    1
    19    14    16   ar
    20    16    17   ar
    21    17    18    1
    22     7     2    1
    23    17    10   ar
    24    24    19   ar
    25     1     8    1
    26     1     9    1
@<TRIPOS>MOLECULE
*****
 24 26 0 0 0
SMALL
GASTEIGER

@<TRIPOS>ATOM
      1 N         142.4220  140.7145  165.4001 N.3     1  UNL1       -0.3206
      2 C         141.0299  140.6391  164.8465 C.3     1  UNL1        0.0750
      3 C         140.8159  140.3258  163.3953 C.3     1  UNL1        0.1079
      4 N         139.4239  140.2504  162.8417 N.pl3   1  UNL1       -0.2918
      5 C         138.2459  140.4883  163.7392 C.3     1  UNL1        0.0926
      6 C         138.4599  140.8016  165.1904 C.3     1  UNL1        0.0273
      7 C         139.8519  140.8770  165.7440 C.3     1  UNL1        0.0422
      8 H         143.0944  140.5276  164.6562 H       1  UNL1        0.1189
      9 H         142.5317  140.0208  166.1398 H       1  UNL1        0.1189
     10 C         140.0659  141.1903  167.1953 C.ar    1  UNL1        0.0087
     11 C         140.1340  140.0789  168.2004 C.ar    1  UNL1        0.0300
     12 C         140.3480  140.3922  169.6516 C.ar    1  UNL1        0.1672
     13 F         140.4160  139.2808  170.6567 F       1  UNL1       -0.2018
     14 C         140.4939  141.8169  170.0978 C.ar    1  UNL1        0.1696
     15 F         140.7079  142.1301  171.5490 F       1  UNL1       -0.2017
     16 C         140.4258  142.9283  169.0927 C.ar    1  UNL1        0.0612
     17 C         140.2118  142.6149  167.6414 C.ar    1  UNL1        0.1386
     18 F         140.1438  143.7263  166.6363 F       1  UNL1       -0.2044
     19 C         139.2099  139.9371  161.3904 C.ar    1  UNL1        0.1351
     20 C         139.9942  138.8382  160.7368 C.ar    1  UNL1        0.0550
     21 C         139.7803  138.5249  159.2856 C.ar    1  UNL1        0.1036
     22 N         138.7819  139.3105  158.4879 N.ar    1  UNL1       -0.2223
     23 C         137.9976  140.4094  159.1415 C.ar    1  UNL1        0.2001
     24 N         138.2116  140.7227  160.5928 N.ar    1  UNL1       -0.2090
@<TRIPOS>BOND
     1     2     1    1
     2     2     3    1
     3     3     4    1
     4     4    19    1
     5    19    20   ar
     6    20    21   ar
     7    21    22   ar
     8    22    23   ar
     9    23    24   ar
    10     4     5    1
    11     5     6    1
    12     6     7    1
    13     7    10    1
    14    10    11   ar
    15    11    12   ar
    16    12    13    1
    17    12    14   ar
    18    14    15    1
    19    14    16   ar
    20    16    17   ar
    21    17    18    1
    22     7     2    1
    23    17    10   ar
    24    24    19   ar
    25     1     8    1
    26     1     9    1
@<TRIPOS>MOLECULE
*****
 24 26 0 0 0
SMALL
GASTEIGER

@<TRIPOS>ATOM
      1 N         138.8118  138.0657  164.9929 N.3     1  UNL1       -0.3206
      2 C         139.2813  139.4264  165.4150 C.3     1  UNL1        0.0750
      3 C         139.5037  139.7259  166.8678 C.3     1  UNL1        0.1079
      4 N         139.9731  141.0866  167.2898 N.pl3   1  UNL1       -0.2918
      5 C         140.2202  142.1479  166.2590 C.3     1  UNL1        0.0926
      6 C         139.9978  141.8484  164.8061 C.3     1  UNL1        0.0273
      7 C         139.5284  140.4877  164.3841 C.3     1  UNL1        0.0422
      8 H         138.6963  137.4753  165.8166 H       1  UNL1        0.1189
      9 H         139.5009  137.6469  164.3684 H       1  UNL1        0.1189
     10 C         139.3060  140.1883  162.9312 C.ar    1  UNL1        0.0087
     11 C         140.3886  139.5324  162.1263 C.ar    1  UNL1        0.0300
     12 C         140.1663  139.2330  160.6735 C.ar    1  UNL1        0.1672
     13 F         141.2489  138.5771  159.8686 F       1  UNL1       -0.2018
     14 C         138.8612  139.5894  160.0254 C.ar    1  UNL1        0.1696
     15 F         138.6389  139.2899  158.5725 F       1  UNL1       -0.2017
     16 C         137.7786  140.2452  160.8302 C.ar    1  UNL1        0.0612
     17 C         138.0010  140.5447  162.2832 C.ar    1  UNL1        0.1386
     18 F         136.9183  141.2005  163.0880 F       1  UNL1       -0.2044
     19 C         140.1955  141.3861  168.7427 C.ar    1  UNL1        0.1351
     20 C         140.1899  142.8063  169.2252 C.ar    1  UNL1        0.0550
     21 C         140.4123  143.1058  170.6780 C.ar    1  UNL1        0.1036
     22 N         140.6403  141.9850  171.6485 N.ar    1  UNL1       -0.2223
     23 C         140.6460  140.5647  171.1661 C.ar    1  UNL1        0.2001
     24 N         140.4236  140.2652  169.7131 N.ar    1  UNL1       -0.2090
@<TRIPOS>BOND
     1     2     1    1
     2     2     3    1
     3     3     4    1
     4     4    19    1
     5    19    20   ar
     6    20    21   ar
     7    21    22   ar
     8    22    23   ar
     9    23    24   ar
    10     4     5    1
    11     5     6    1
    12     6     7    1
    13     7    10    1
    14    10    11   ar
    15    11    12   ar
    16    12    13    1
    17    12    14   ar
    18    14    15    1
    19    14    16   ar
    20    16    17   ar
    21    17    18    1
    22     7     2    1
    23    17    10   ar
    24    24    19   ar
    25     1     8    1
    26     1     9    1
@<TRIPOS>MOLECULE
*****
 24 26 0 0 0
SMALL
GASTEIGER

@<TRIPOS>ATOM
      1 N         140.2179  141.3889  163.8056 N.3     1  UNL1       -0.3206
      2 C         141.2220  141.6969  164.8765 C.3     1  UNL1        0.0750
      3 C         140.7935  141.7514  166.3130 C.3     1  UNL1        0.1079
      4 N         141.7976  142.0593  167.3840 N.pl3   1  UNL1       -0.2918
      5 C         143.2301  142.3128  167.0185 C.3     1  UNL1        0.0926
      6 C         143.6585  142.2583  165.5821 C.3     1  UNL1        0.0273
      7 C         142.6545  141.9504  164.5111 C.3     1  UNL1        0.0422
      8 H         139.3015  141.2454  164.2298 H       1  UNL1        0.1189
      9 H         140.4989  140.5433  163.3091 H       1  UNL1        0.1189
     10 C         143.0830  141.8959  163.0746 C.ar    1  UNL1        0.0087
     11 C         143.5266  140.5953  162.4731 C.ar    1  UNL1        0.0300
     12 C         143.9551  140.5408  161.0367 C.ar    1  UNL1        0.1672
     13 F         144.3987  139.2403  160.4352 F       1  UNL1       -0.2018
     14 C         143.9401  141.7869  160.2017 C.ar    1  UNL1        0.1696
     15 F         144.3686  141.7324  158.7653 F       1  UNL1       -0.2017
     16 C         143.4965  143.0874  160.8032 C.ar    1  UNL1        0.0612
     17 C         143.0680  143.1419  162.2397 C.ar    1  UNL1        0.1386
     18 F         142.6244  144.4425  162.8412 F       1  UNL1       -0.2044
     19 C         141.3690  142.1138  168.8205 C.ar    1  UNL1        0.1351
     20 C         140.2929  143.0680  169.2464 C.ar    1  UNL1        0.0550
     21 C         139.8644  143.1225  170.6828 C.ar    1  UNL1        0.1036
     22 N         140.5119  142.2228  171.6934 N.ar    1  UNL1       -0.2223
     23 C         141.5881  141.2685  171.2675 C.ar    1  UNL1        0.2001
     24 N         142.0166  141.2141  169.8310 N.ar    1  UNL1       -0.2090
@<TRIPOS>BOND
     1     2     1    1
     2     2     3    1
     3     3     4    1
     4     4    19    1
     5    19    20   ar
     6    20    21   ar
     7    21    22   ar
     8    22    23   ar
     9    23    24   ar
    10     4     5    1
    11     5     6    1
    12     6     7    1
    13     7    10    1
    14    10    11   ar
    15    11    12   ar
    16    12    13    1
    17    12    14   ar
    18    14    15    1
    19    14    16   ar
    20    16    17   ar
    21    17    18    1
    22     7     2    1
    23    17    10   ar
    24    24    19   ar
    25     1     8    1
    26     1     9    1
