@<TRIPOS>MOLECULE
*****
 30 34 0 0 0
SMALL
GASTEIGER

@<TRIPOS>ATOM
      1 N         142.8162  143.0571  164.3207 N.pl3   1  UNL1       -0.3133
      2 C         142.6255  142.5246  165.7100 C.2     1  UNL1        0.2770
      3 N         141.5029  141.6423  166.1696 N.2     1  UNL1       -0.2204
      4 C         141.7076  141.3533  167.6273 C.3     1  UNL1        0.1537
      5 C         142.9566  142.0571  168.0684 C.3     1  UNL1        0.2350
      6 O         143.5239  142.7809  166.8835 O.2     1  UNL1       -0.4478
      7 C         140.4853  140.7091  167.0432 C.ar    1  UNL1        0.0355
      8 C         140.1515  140.9093  165.5947 C.ar    1  UNL1        0.0007
      9 C         138.9292  140.2651  165.0106 C.ar    1  UNL1        0.0015
     10 C         138.0407  139.4206  165.8753 C.ar    1  UNL1        0.0031
     11 C         138.3746  139.2204  167.3239 C.ar    1  UNL1        0.0366
     12 C         139.5968  139.8647  167.9079 C.ar    1  UNL1        0.1364
     13 O         139.9307  139.6645  169.3565 O.3     1  UNL1       -0.4756
     14 C         141.1529  140.3087  169.9405 C.3     1  UNL1        0.2074
     15 C         142.0414  141.1531  169.0759 C.3     1  UNL1        0.0666
     16 C         143.2600  142.0126  168.9138 C.3     1  UNL1        0.0061
     17 C         142.9398  141.4095  170.2494 C.3     1  UNL1        0.0061
     18 H         142.1689  142.8318  163.6140 H       1  UNL1        0.1466
     19 H         143.5888  143.6319  164.1155 H       1  UNL1        0.1466
     20 C         138.5954  140.4653  163.5620 C.ar    1  UNL1        0.0222
     21 C         138.1353  139.3044  162.7310 C.ar    1  UNL1        0.0991
     22 N         137.8015  139.5046  161.2824 N.ar    1  UNL1       -0.2391
     23 C         137.9278  140.8658  160.6648 C.ar    1  UNL1        0.1356
     24 C         138.3878  142.0267  161.4959 C.ar    1  UNL1        0.1579
     25 C         138.7216  141.8264  162.9445 C.ar    1  UNL1        0.0401
     26 O         138.5140  143.3878  160.8783 O.3     1  UNL1       -0.4678
     27 C         139.6512  144.2853  161.2673 C.3     1  UNL1        0.2772
     28 C         139.4250  145.4030  162.2419 C.3     1  UNL1        0.3615
     29 F         139.7312  146.8169  161.8457 F       1  UNL1       -0.1942
     30 F         138.8927  145.1067  163.6126 F       1  UNL1       -0.1942
@<TRIPOS>BOND
     1     1     2    1
     2     2     3    2
     3     3     4    1
     4     4     5    1
     5     5     6    1
     6     4     7    1
     7     7     8   ar
     8     8     9   ar
     9     9    20    1
    10    20    21   ar
    11    21    22   ar
    12    22    23   ar
    13    23    24   ar
    14    24    26    1
    15    26    27    1
    16    27    28    1
    17    28    29    1
    18    28    30    1
    19    24    25   ar
    20     9    10   ar
    21    10    11   ar
    22    11    12   ar
    23    12    13    1
    24    13    14    1
    25    14    15    1
    26    15    16    1
    27    16    17    1
    28     6     2    1
    29    12     7   ar
    30    17    15    1
    31    15     4    1
    32    25    20   ar
    33     1    18    1
    34     1    19    1
@<TRIPOS>MOLECULE
*****
 30 34 0 0 0
SMALL
GASTEIGER

@<TRIPOS>ATOM
      1 N         143.5597  142.0693  165.6815 N.pl3   1  UNL1       -0.3133
      2 C         142.6151  141.8974  166.8340 C.2     1  UNL1        0.2770
      3 N         141.4070  141.0087  166.8586 N.2     1  UNL1       -0.2204
      4 C         140.7580  141.1460  168.2041 C.3     1  UNL1        0.1537
      5 C         141.5652  142.1195  169.0108 C.3     1  UNL1        0.2350
      6 O         142.7129  142.5838  168.1641 O.2     1  UNL1       -0.4478
      7 C         140.0540  140.1958  167.2812 C.ar    1  UNL1        0.0355
      8 C         140.5887  139.9570  165.9002 C.ar    1  UNL1        0.0007
      9 C         139.8847  139.0068  164.9773 C.ar    1  UNL1        0.0015
     10 C         138.6461  138.2955  165.4355 C.ar    1  UNL1        0.0031
     11 C         138.1115  138.5344  166.8165 C.ar    1  UNL1        0.0366
     12 C         138.8154  139.4845  167.7393 C.ar    1  UNL1        0.1364
     13 O         138.2808  139.7234  169.1204 O.3     1  UNL1       -0.4756
     14 C         138.9848  140.6736  170.0432 C.3     1  UNL1        0.2074
     15 C         140.2234  141.3849  169.5850 C.3     1  UNL1        0.0666
     16 C         141.3449  142.3441  169.8533 C.3     1  UNL1        0.0061
     17 C         140.3211  142.0713  170.9151 C.3     1  UNL1        0.0061
     18 H         143.4110  141.5725  164.8447 H       1  UNL1        0.1466
     19 H         144.3285  142.6791  165.7619 H       1  UNL1        0.1466
     20 C         140.4194  138.7680  163.5964 C.ar    1  UNL1        0.0222
     21 C         139.5956  138.0169  162.5927 C.ar    1  UNL1        0.0991
     22 N         140.1303  137.7780  161.2118 N.ar    1  UNL1       -0.2391
     23 C         141.4887  138.2903  160.8344 C.ar    1  UNL1        0.1356
     24 C         142.3124  139.0414  161.8381 C.ar    1  UNL1        0.1579
     25 C         141.7777  139.2803  163.2191 C.ar    1  UNL1        0.0401
     26 O         143.6708  139.5537  161.4608 O.3     1  UNL1       -0.4678
     27 C         144.1858  140.8273  162.0629 C.3     1  UNL1        0.2772
     28 C         145.2166  140.7791  163.1516 C.3     1  UNL1        0.3615
     29 F         145.3194  139.5706  164.0342 F       1  UNL1       -0.1942
     30 F         146.1446  141.9394  163.3577 F       1  UNL1       -0.1942
@<TRIPOS>BOND
     1     1     2    1
     2     2     3    2
     3     3     4    1
     4     4     5    1
     5     5     6    1
     6     4     7    1
     7     7     8   ar
     8     8     9   ar
     9     9    20    1
    10    20    21   ar
    11    21    22   ar
    12    22    23   ar
    13    23    24   ar
    14    24    26    1
    15    26    27    1
    16    27    28    1
    17    28    29    1
    18    28    30    1
    19    24    25   ar
    20     9    10   ar
    21    10    11   ar
    22    11    12   ar
    23    12    13    1
    24    13    14    1
    25    14    15    1
    26    15    16    1
    27    16    17    1
    28     6     2    1
    29    12     7   ar
    30    17    15    1
    31    15     4    1
    32    25    20   ar
    33     1    18    1
    34     1    19    1
@<TRIPOS>MOLECULE
*****
 30 34 0 0 0
SMALL
GASTEIGER

@<TRIPOS>ATOM
      1 N         143.6250  141.9448  165.1095 N.pl3   1  UNL1       -0.3133
      2 C         142.8886  141.8043  166.4088 C.2     1  UNL1        0.2770
      3 N         141.6178  141.0369  166.6235 N.2     1  UNL1       -0.2204
      4 C         141.2376  141.1649  168.0689 C.3     1  UNL1        0.1537
      5 C         142.2734  142.0115  168.7474 C.3     1  UNL1        0.2350
      6 O         143.2938  142.4066  167.7215 O.2     1  UNL1       -0.4478
      7 C         140.2844  140.3377  167.2582 C.ar    1  UNL1        0.0355
      8 C         140.5358  140.1217  165.7953 C.ar    1  UNL1        0.0007
      9 C         139.5827  139.2944  164.9846 C.ar    1  UNL1        0.0015
     10 C         138.3781  138.6832  165.6368 C.ar    1  UNL1        0.0031
     11 C         138.1267  138.8993  167.0998 C.ar    1  UNL1        0.0366
     12 C         139.0799  139.7265  167.9104 C.ar    1  UNL1        0.1364
     13 O         138.8285  139.9425  169.3734 O.3     1  UNL1       -0.4756
     14 C         139.7817  140.7697  170.1840 C.3     1  UNL1        0.2074
     15 C         140.9862  141.3809  169.5318 C.3     1  UNL1        0.0666
     16 C         142.2320  142.2114  169.6232 C.3     1  UNL1        0.0061
     17 C         141.3914  141.9833  170.8444 C.3     1  UNL1        0.0061
     18 H         143.2779  141.5097  164.2975 H       1  UNL1        0.1466
     19 H         144.4554  142.4721  165.0689 H       1  UNL1        0.1466
     20 C         139.8341  139.0784  163.5217 C.ar    1  UNL1        0.0222
     21 C         138.9626  138.1393  162.7416 C.ar    1  UNL1        0.0991
     22 N         139.2140  137.9233  161.2787 N.ar    1  UNL1       -0.2391
     23 C         140.3369  138.6465  160.5958 C.ar    1  UNL1        0.1356
     24 C         141.2083  139.5856  161.3759 C.ar    1  UNL1        0.1579
     25 C         140.9569  139.8016  162.8389 C.ar    1  UNL1        0.0401
     26 O         142.3311  140.3088  160.6932 O.3     1  UNL1       -0.4678
     27 C         143.6802  139.6630  160.5802 C.3     1  UNL1        0.2772
     28 C         144.1313  138.6812  161.6207 C.3     1  UNL1        0.3615
     29 F         144.2242  137.2222  161.2850 F       1  UNL1       -0.1942
     30 F         144.4894  139.1584  162.9969 F       1  UNL1       -0.1942
@<TRIPOS>BOND
     1     1     2    1
     2     2     3    2
     3     3     4    1
     4     4     5    1
     5     5     6    1
     6     4     7    1
     7     7     8   ar
     8     8     9   ar
     9     9    20    1
    10    20    21   ar
    11    21    22   ar
    12    22    23   ar
    13    23    24   ar
    14    24    26    1
    15    26    27    1
    16    27    28    1
    17    28    29    1
    18    28    30    1
    19    24    25   ar
    20     9    10   ar
    21    10    11   ar
    22    11    12   ar
    23    12    13    1
    24    13    14    1
    25    14    15    1
    26    15    16    1
    27    16    17    1
    28     6     2    1
    29    12     7   ar
    30    17    15    1
    31    15     4    1
    32    25    20   ar
    33     1    18    1
    34     1    19    1
@<TRIPOS>MOLECULE
*****
 30 34 0 0 0
SMALL
GASTEIGER

@<TRIPOS>ATOM
      1 N         138.3883  144.1849  164.1909 N.pl3   1  UNL1       -0.3133
      2 C         138.4390  143.2352  163.0308 C.2     1  UNL1        0.2770
      3 N         138.6672  141.7549  163.1126 N.2     1  UNL1       -0.2204
      4 C         138.6396  141.2040  161.7177 C.3     1  UNL1        0.1537
      5 C         138.3944  142.3437  160.7739 C.3     1  UNL1        0.2350
      6 O         138.2703  143.5990  161.5854 O.2     1  UNL1       -0.4478
      7 C         138.8783  140.1697  162.7776 C.ar    1  UNL1        0.0355
      8 C         138.9318  140.5737  164.2212 C.ar    1  UNL1        0.0007
      9 C         139.1704  139.5394  165.2811 C.ar    1  UNL1        0.0015
     10 C         139.3556  138.1012  164.8974 C.ar    1  UNL1        0.0031
     11 C         139.3021  137.6972  163.4538 C.ar    1  UNL1        0.0366
     12 C         139.0635  138.7315  162.3939 C.ar    1  UNL1        0.1364
     13 O         139.0100  138.3275  160.9503 O.3     1  UNL1       -0.4756
     14 C         138.7714  139.3618  159.8904 C.3     1  UNL1        0.2074
     15 C         138.5862  140.8000  160.2741 C.3     1  UNL1        0.0666
     16 C         138.3415  142.2274  159.8837 C.3     1  UNL1        0.0061
     17 C         138.4175  141.1639  158.8288 C.3     1  UNL1        0.0061
     18 H         138.5111  143.8487  165.1080 H       1  UNL1        0.1466
     19 H         138.2322  145.1444  164.0351 H       1  UNL1        0.1466
     20 C         139.2239  139.9434  166.7247 C.ar    1  UNL1        0.0222
     21 C         138.4142  139.1967  167.7430 C.ar    1  UNL1        0.0991
     22 N         138.4677  139.6006  169.1865 N.ar    1  UNL1       -0.2391
     23 C         139.3308  140.7514  169.6119 C.ar    1  UNL1        0.1356
     24 C         140.1405  141.4981  168.5936 C.ar    1  UNL1        0.1579
     25 C         140.0870  141.0941  167.1500 C.ar    1  UNL1        0.0401
     26 O         141.0036  142.6488  169.0189 O.3     1  UNL1       -0.4678
     27 C         141.7196  142.6025  170.3361 C.3     1  UNL1        0.2772
     28 C         143.1818  142.9300  170.4068 C.3     1  UNL1        0.3615
     29 F         143.6481  144.1107  171.2058 F       1  UNL1       -0.1942
     30 F         144.1776  142.0767  169.6785 F       1  UNL1       -0.1942
@<TRIPOS>BOND
     1     1     2    1
     2     2     3    2
     3     3     4    1
     4     4     5    1
     5     5     6    1
     6     4     7    1
     7     7     8   ar
     8     8     9   ar
     9     9    20    1
    10    20    21   ar
    11    21    22   ar
    12    22    23   ar
    13    23    24   ar
    14    24    26    1
    15    26    27    1
    16    27    28    1
    17    28    29    1
    18    28    30    1
    19    24    25   ar
    20     9    10   ar
    21    10    11   ar
    22    11    12   ar
    23    12    13    1
    24    13    14    1
    25    14    15    1
    26    15    16    1
    27    16    17    1
    28     6     2    1
    29    12     7   ar
    30    17    15    1
    31    15     4    1
    32    25    20   ar
    33     1    18    1
    34     1    19    1
@<TRIPOS>MOLECULE
*****
 30 34 0 0 0
SMALL
GASTEIGER

@<TRIPOS>ATOM
      1 N         143.8679  142.8504  165.8726 N.pl3   1  UNL1       -0.3133
      2 C         143.1011  142.3462  167.0593 C.2     1  UNL1        0.2770
      3 N         141.8513  141.5183  167.0144 N.2     1  UNL1       -0.2204
      4 C         141.4274  141.2420  168.4265 C.3     1  UNL1        0.1537
      5 C         142.4154  141.8992  169.3441 C.3     1  UNL1        0.2350
      6 O         143.4498  142.5817  168.4991 O.2     1  UNL1       -0.4478
      7 C         140.5249  140.6410  167.3899 C.ar    1  UNL1        0.0355
      8 C         140.8235  140.8341  165.9327 C.ar    1  UNL1        0.0007
      9 C         139.9211  140.2331  164.8961 C.ar    1  UNL1        0.0015
     10 C         138.7201  139.4390  165.3168 C.ar    1  UNL1        0.0031
     11 C         138.4215  139.2459  166.7740 C.ar    1  UNL1        0.0366
     12 C         139.3239  139.8468  167.8106 C.ar    1  UNL1        0.1364
     13 O         139.0254  139.6537  169.2679 O.3     1  UNL1       -0.4756
     14 C         139.9278  140.2547  170.3044 C.3     1  UNL1        0.2074
     15 C         141.1288  141.0488  169.8837 C.3     1  UNL1        0.0666
     16 C         142.3432  141.8542  170.2393 C.3     1  UNL1        0.0061
     17 C         141.4774  141.2843  171.3235 C.3     1  UNL1        0.0061
     18 H         143.5580  142.6422  164.9617 H       1  UNL1        0.1466
     19 H         144.6811  143.3894  166.0048 H       1  UNL1        0.1466
     20 C         140.2197  140.4263  163.4389 C.ar    1  UNL1        0.0222
     21 C         139.6652  139.4686  162.4263 C.ar    1  UNL1        0.0991
     22 N         139.9638  139.6618  160.9691 N.ar    1  UNL1       -0.2391
     23 C         140.8169  140.8127  160.5244 C.ar    1  UNL1        0.1356
     24 C         141.3714  141.7704  161.5370 C.ar    1  UNL1        0.1579
     25 C         141.0727  141.5772  162.9943 C.ar    1  UNL1        0.0401
     26 O         142.2244  142.9213  161.0924 O.3     1  UNL1       -0.4678
     27 C         142.2095  144.2077  161.8636 C.3     1  UNL1        0.2772
     28 C         143.3774  144.5764  162.7299 C.3     1  UNL1        0.3615
     29 F         143.1789  145.4772  163.9127 F       1  UNL1       -0.1942
     30 F         144.7436  144.0442  162.4133 F       1  UNL1       -0.1942
@<TRIPOS>BOND
     1     1     2    1
     2     2     3    2
     3     3     4    1
     4     4     5    1
     5     5     6    1
     6     4     7    1
     7     7     8   ar
     8     8     9   ar
     9     9    20    1
    10    20    21   ar
    11    21    22   ar
    12    22    23   ar
    13    23    24   ar
    14    24    26    1
    15    26    27    1
    16    27    28    1
    17    28    29    1
    18    28    30    1
    19    24    25   ar
    20     9    10   ar
    21    10    11   ar
    22    11    12   ar
    23    12    13    1
    24    13    14    1
    25    14    15    1
    26    15    16    1
    27    16    17    1
    28     6     2    1
    29    12     7   ar
    30    17    15    1
    31    15     4    1
    32    25    20   ar
    33     1    18    1
    34     1    19    1
@<TRIPOS>MOLECULE
*****
 30 34 0 0 0
SMALL
GASTEIGER

@<TRIPOS>ATOM
      1 N         138.3059  139.3286  166.1760 N.pl3   1  UNL1       -0.3133
      2 C         139.2602  139.8420  167.2133 C.2     1  UNL1        0.2770
      3 N         140.4839  140.6694  166.9528 N.2     1  UNL1       -0.2204
      4 C         141.1383  140.9568  168.2717 C.3     1  UNL1        0.1537
      5 C         140.3190  140.3070  169.3471 C.3     1  UNL1        0.2350
      6 O         139.1583  139.6180  168.6930 O.2     1  UNL1       -0.4478
      7 C         141.8534  141.5493  167.0937 C.ar    1  UNL1        0.0355
      8 C         141.3149  141.3447  165.7088 C.ar    1  UNL1        0.0007
      9 C         142.0300  141.9372  164.5308 C.ar    1  UNL1        0.0015
     10 C         143.2836  142.7345  164.7378 C.ar    1  UNL1        0.0031
     11 C         143.8221  142.9391  166.1228 C.ar    1  UNL1        0.0366
     12 C         143.1070  142.3466  167.3007 C.ar    1  UNL1        0.1364
     13 O         143.6456  142.5512  168.6857 O.3     1  UNL1       -0.4756
     14 C         142.9305  141.9587  169.8636 C.3     1  UNL1        0.2074
     15 C         141.6768  141.1615  169.6566 C.3     1  UNL1        0.0666
     16 C         140.5402  140.3591  170.2172 C.3     1  UNL1        0.0061
     17 C         141.5749  140.9375  171.1363 C.3     1  UNL1        0.0061
     18 H         138.4584  139.5295  165.2244 H       1  UNL1        0.1466
     19 H         137.5270  138.7908  166.4469 H       1  UNL1        0.1466
     20 C         141.4915  141.7326  163.1459 C.ar    1  UNL1        0.0222
     21 C         141.1989  142.9163  162.2723 C.ar    1  UNL1        0.0991
     22 N         140.6604  142.7117  160.8874 N.ar    1  UNL1       -0.2391
     23 C         140.4144  141.3231  160.3760 C.ar    1  UNL1        0.1356
     24 C         140.7069  140.1393  161.2495 C.ar    1  UNL1        0.1579
     25 C         141.2454  140.3441  162.6345 C.ar    1  UNL1        0.0401
     26 O         140.4609  138.7509  160.7381 O.3     1  UNL1       -0.4678
     27 C         139.1161  138.1118  160.9205 C.3     1  UNL1        0.2772
     28 C         138.3928  138.2464  162.2277 C.3     1  UNL1        0.3615
     29 F         138.5006  137.1632  163.2596 F       1  UNL1       -0.1942
     30 F         137.5616  139.4644  162.5029 F       1  UNL1       -0.1942
@<TRIPOS>BOND
     1     1     2    1
     2     2     3    2
     3     3     4    1
     4     4     5    1
     5     5     6    1
     6     4     7    1
     7     7     8   ar
     8     8     9   ar
     9     9    20    1
    10    20    21   ar
    11    21    22   ar
    12    22    23   ar
    13    23    24   ar
    14    24    26    1
    15    26    27    1
    16    27    28    1
    17    28    29    1
    18    28    30    1
    19    24    25   ar
    20     9    10   ar
    21    10    11   ar
    22    11    12   ar
    23    12    13    1
    24    13    14    1
    25    14    15    1
    26    15    16    1
    27    16    17    1
    28     6     2    1
    29    12     7   ar
    30    17    15    1
    31    15     4    1
    32    25    20   ar
    33     1    18    1
    34     1    19    1
@<TRIPOS>MOLECULE
*****
 30 34 0 0 0
SMALL
GASTEIGER

@<TRIPOS>ATOM
      1 N         137.0216  141.1952  163.4360 N.pl3   1  UNL1       -0.3133
      2 C         137.7790  140.6535  162.2599 C.2     1  UNL1        0.2770
      3 N         139.1099  139.9636  162.3103 N.2     1  UNL1       -0.2204
      4 C         139.4917  139.5903  160.9085 C.3     1  UNL1        0.1537
      5 C         138.3967  140.0495  159.9919 C.3     1  UNL1        0.2350
      6 O         137.3382  140.7066  160.8271 O.2     1  UNL1       -0.4478
      7 C         140.5016  139.1902  161.9430 C.ar    1  UNL1        0.0355
      8 C         140.2551  139.4983  163.3902 C.ar    1  UNL1        0.0007
      9 C         141.2650  139.0982  164.4248 C.ar    1  UNL1        0.0015
     10 C         142.5212  138.3901  164.0121 C.ar    1  UNL1        0.0031
     11 C         142.7676  138.0819  162.5648 C.ar    1  UNL1        0.0366
     12 C         141.7578  138.4820  161.5304 C.ar    1  UNL1        0.1364
     13 O         142.0042  138.1739  160.0831 O.3     1  UNL1       -0.4756
     14 C         140.9944  138.5740  159.0487 C.3     1  UNL1        0.2074
     15 C         139.7382  139.2821  159.4613 C.3     1  UNL1        0.0666
     16 C         138.4299  139.9220  159.1023 C.3     1  UNL1        0.0061
     17 C         139.2974  139.3352  158.0285 C.3     1  UNL1        0.0061
     18 H         137.3955  141.1120  164.3429 H       1  UNL1        0.1466
     19 H         136.1507  141.6340  163.3009 H       1  UNL1        0.1466
     20 C         141.0185  139.4064  165.8719 C.ar    1  UNL1        0.0222
     21 C         139.6252  139.6843  166.3528 C.ar    1  UNL1        0.0991
     22 N         139.3787  139.9925  167.8000 N.ar    1  UNL1       -0.2391
     23 C         140.5257  140.0226  168.7663 C.ar    1  UNL1        0.1356
     24 C         141.9190  139.7446  168.2854 C.ar    1  UNL1        0.1579
     25 C         142.1654  139.4365  166.8381 C.ar    1  UNL1        0.0401
     26 O         143.0659  139.7748  169.2516 O.3     1  UNL1       -0.4678
     27 C         143.1472  140.8584  170.2856 C.3     1  UNL1        0.2772
     28 C         143.5038  142.2576  169.8792 C.3     1  UNL1        0.3615
     29 F         144.9407  142.6870  169.8503 F       1  UNL1       -0.1942
     30 F         142.4234  143.2273  169.5018 F       1  UNL1       -0.1942
@<TRIPOS>BOND
     1     1     2    1
     2     2     3    2
     3     3     4    1
     4     4     5    1
     5     5     6    1
     6     4     7    1
     7     7     8   ar
     8     8     9   ar
     9     9    20    1
    10    20    21   ar
    11    21    22   ar
    12    22    23   ar
    13    23    24   ar
    14    24    26    1
    15    26    27    1
    16    27    28    1
    17    28    29    1
    18    28    30    1
    19    24    25   ar
    20     9    10   ar
    21    10    11   ar
    22    11    12   ar
    23    12    13    1
    24    13    14    1
    25    14    15    1
    26    15    16    1
    27    16    17    1
    28     6     2    1
    29    12     7   ar
    30    17    15    1
    31    15     4    1
    32    25    20   ar
    33     1    18    1
    34     1    19    1
@<TRIPOS>MOLECULE
*****
 30 34 0 0 0
SMALL
GASTEIGER

@<TRIPOS>ATOM
      1 N         143.7248  142.2602  165.1748 N.pl3   1  UNL1       -0.3133
      2 C         143.0152  142.0643  166.4818 C.2     1  UNL1        0.2770
      3 N         141.7662  141.2617  166.6953 N.2     1  UNL1       -0.2204
      4 C         141.4093  141.3381  168.1503 C.3     1  UNL1        0.1537
      5 C         142.4377  142.1879  168.8359 C.3     1  UNL1        0.2350
      6 O         143.4303  142.6368  167.8047 O.2     1  UNL1       -0.4478
      7 C         140.4606  140.5134  167.3318 C.ar    1  UNL1        0.0355
      8 C         140.6904  140.3466  165.8589 C.ar    1  UNL1        0.0007
      9 C         139.7417  139.5219  165.0404 C.ar    1  UNL1        0.0015
     10 C         138.5632  138.8640  165.6948 C.ar    1  UNL1        0.0031
     11 C         138.3334  139.0308  167.1678 C.ar    1  UNL1        0.0366
     12 C         139.2821  139.8555  167.9862 C.ar    1  UNL1        0.1364
     13 O         139.0523  140.0223  169.4591 O.3     1  UNL1       -0.4756
     14 C         140.0009  140.8470  170.2776 C.3     1  UNL1        0.2074
     15 C         141.1794  141.5049  169.6231 C.3     1  UNL1        0.0666
     16 C         142.4075  142.3609  169.7179 C.3     1  UNL1        0.0061
     17 C         141.5945  142.0773  170.9461 C.3     1  UNL1        0.0061
     18 H         143.3730  141.8414  164.3561 H       1  UNL1        0.1466
     19 H         144.5422  142.8075  165.1356 H       1  UNL1        0.1466
     20 C         139.9715  139.3552  163.5676 C.ar    1  UNL1        0.0222
     21 C         139.7932  138.0100  162.9282 C.ar    1  UNL1        0.0991
     22 N         140.0230  137.8433  161.4554 N.ar    1  UNL1       -0.2391
     23 C         140.4313  139.0217  160.6218 C.ar    1  UNL1        0.1356
     24 C         140.6096  140.3668  161.2612 C.ar    1  UNL1        0.1579
     25 C         140.3797  140.5336  162.7341 C.ar    1  UNL1        0.0401
     26 O         141.0178  141.5452  160.4277 O.3     1  UNL1       -0.4678
     27 C         140.0723  142.6944  160.2397 C.3     1  UNL1        0.2772
     28 C         138.6074  142.4363  160.0456 C.3     1  UNL1        0.3615
     29 F         137.7736  141.9474  161.1926 F       1  UNL1       -0.1942
     30 F         137.9764  142.6672  158.7045 F       1  UNL1       -0.1942
@<TRIPOS>BOND
     1     1     2    1
     2     2     3    2
     3     3     4    1
     4     4     5    1
     5     5     6    1
     6     4     7    1
     7     7     8   ar
     8     8     9   ar
     9     9    20    1
    10    20    21   ar
    11    21    22   ar
    12    22    23   ar
    13    23    24   ar
    14    24    26    1
    15    26    27    1
    16    27    28    1
    17    28    29    1
    18    28    30    1
    19    24    25   ar
    20     9    10   ar
    21    10    11   ar
    22    11    12   ar
    23    12    13    1
    24    13    14    1
    25    14    15    1
    26    15    16    1
    27    16    17    1
    28     6     2    1
    29    12     7   ar
    30    17    15    1
    31    15     4    1
    32    25    20   ar
    33     1    18    1
    34     1    19    1
@<TRIPOS>MOLECULE
*****
 30 34 0 0 0
SMALL
GASTEIGER

@<TRIPOS>ATOM
      1 N         137.3676  139.7503  161.1698 N.pl3   1  UNL1       -0.3133
      2 C         138.1258  140.9757  160.7530 C.2     1  UNL1        0.2770
      3 N         138.9437  141.8547  161.6521 N.2     1  UNL1       -0.2204
      4 C         139.5225  142.9595  160.8187 C.3     1  UNL1        0.1537
      5 C         139.0623  142.7632  159.4046 C.3     1  UNL1        0.2350
      6 O         138.1991  141.5372  159.3640 O.2     1  UNL1       -0.4478
      7 C         139.9009  143.0265  162.2687 C.ar    1  UNL1        0.0355
      8 C         139.3955  141.9869  163.2246 C.ar    1  UNL1        0.0007
      9 C         139.7739  142.0540  164.6745 C.ar    1  UNL1        0.0015
     10 C         140.6578  143.1607  165.1686 C.ar    1  UNL1        0.0031
     11 C         141.1632  144.2003  164.2126 C.ar    1  UNL1        0.0366
     12 C         140.7847  144.1332  162.7627 C.ar    1  UNL1        0.1364
     13 O         141.2901  145.1729  161.8067 O.3     1  UNL1       -0.4756
     14 C         140.9117  145.1058  160.3568 C.3     1  UNL1        0.2074
     15 C         140.0279  143.9991  159.8628 C.3     1  UNL1        0.0666
     16 C         139.2991  143.3214  158.7405 C.3     1  UNL1        0.0061
     17 C         140.1012  144.5606  158.4738 C.3     1  UNL1        0.0061
     18 H         137.3804  139.4597  162.1103 H       1  UNL1        0.1466
     19 H         136.8573  139.2366  160.5028 H       1  UNL1        0.1466
     20 C         139.2685  141.0144  165.6304 C.ar    1  UNL1        0.0222
     21 C         138.2170  140.0392  165.1908 C.ar    1  UNL1        0.0991
     22 N         137.7116  138.9996  166.1467 N.ar    1  UNL1       -0.2391
     23 C         138.2577  138.9351  167.5423 C.ar    1  UNL1        0.1356
     24 C         139.3093  139.9103  167.9819 C.ar    1  UNL1        0.1579
     25 C         139.8147  140.9499  167.0259 C.ar    1  UNL1        0.0401
     26 O         139.8555  139.8459  169.3774 O.3     1  UNL1       -0.4678
     27 C         141.3372  139.7791  169.6005 C.3     1  UNL1        0.2772
     28 C         142.1241  141.0414  169.7947 C.3     1  UNL1        0.3615
     29 F         141.4408  142.3733  169.6993 F       1  UNL1       -0.1942
     30 F         143.5942  140.9717  170.0842 F       1  UNL1       -0.1942
@<TRIPOS>BOND
     1     1     2    1
     2     2     3    2
     3     3     4    1
     4     4     5    1
     5     5     6    1
     6     4     7    1
     7     7     8   ar
     8     8     9   ar
     9     9    20    1
    10    20    21   ar
    11    21    22   ar
    12    22    23   ar
    13    23    24   ar
    14    24    26    1
    15    26    27    1
    16    27    28    1
    17    28    29    1
    18    28    30    1
    19    24    25   ar
    20     9    10   ar
    21    10    11   ar
    22    11    12   ar
    23    12    13    1
    24    13    14    1
    25    14    15    1
    26    15    16    1
    27    16    17    1
    28     6     2    1
    29    12     7   ar
    30    17    15    1
    31    15     4    1
    32    25    20   ar
    33     1    18    1
    34     1    19    1
