@<TRIPOS>MOLECULE
*****
 33 35 0 0 0
SMALL
GASTEIGER

@<TRIPOS>ATOM
      1 C         139.4275  137.4191  163.7276 C.3     1  UNL1        0.0815
      2 C         142.6147  139.9398  166.9661 C.3     1  UNL1        0.0018
      3 C         141.2410  139.4504  166.6147 C.3     1  UNL1        0.0198
      4 C         141.0211  138.6795  165.3469 C.3     1  UNL1        0.0724
      5 N         139.6474  138.1900  164.9955 N.3     1  UNL1       -0.2722
      6 C         138.4937  138.4715  165.9118 C.3     1  UNL1        0.0724
      7 C         138.7136  139.2425  167.1795 C.3     1  UNL1        0.0214
      8 C         140.0873  139.7319  167.5310 C.3     1  UNL1        0.0216
      9 C         139.3178  140.2453  168.7118 C.3     1  UNL1        0.0045
     10 C         141.1937  140.3996  168.2926 C.ar    1  UNL1       -0.0197
     11 C         141.5972  141.8037  167.9523 C.ar    1  UNL1       -0.0041
     12 C         142.7036  142.4715  168.7138 C.ar    1  UNL1        0.0028
     13 C         143.4064  141.7354  169.8156 C.ar    1  UNL1        0.0366
     14 C         143.0029  140.3314  170.1560 C.ar    1  UNL1        0.1334
     15 O         143.7056  139.5951  171.2578 O.3     1  UNL1       -0.5055
     16 C         141.8965  139.6635  169.3944 C.ar    1  UNL1        0.0323
     17 H         144.3967  140.0122  171.7335 H       1  UNL1        0.2922
     18 C         139.2630  138.1468  162.4263 C.3     1  UNL1        0.0967
     19 C         140.3645  138.1216  161.4085 C.2     1  UNL1        0.2240
     20 O         140.0983  138.5753  160.0038 O.2     1  UNL1       -0.2750
     21 N         141.7324  137.6428  161.7954 N.am    1  UNL1       -0.2995
     22 H         141.9072  137.3450  162.7174 H       1  UNL1        0.1498
     23 C         142.8339  137.6176  160.7776 C.3     1  UNL1        0.1316
     24 C         143.7428  138.8013  160.6266 C.2     1  UNL1        0.0702
     25 O         144.2295  139.5331  161.8422 O.co2   1  UNL1       -0.5474
     26 O         144.1648  139.2533  159.2601 O.co2   1  UNL1       -0.5474
     27 C         137.9969  138.8996  162.1429 C.3     1  UNL1        0.0368
     28 C         137.9547  140.3887  162.3178 C.ar    1  UNL1       -0.0217
     29 C         138.2048  141.2891  161.1445 C.ar    1  UNL1       -0.0043
     30 C         138.1625  142.7783  161.3195 C.ar    1  UNL1       -0.0003
     31 C         137.8701  143.3671  162.6677 C.ar    1  UNL1       -0.0000
     32 C         137.6199  142.4666  163.8411 C.ar    1  UNL1       -0.0003
     33 C         137.6622  140.9775  163.6661 C.ar    1  UNL1       -0.0043
@<TRIPOS>UNITY_ATOM_ATTR
25 1
charge -1
@<TRIPOS>BOND
     1     3     2    1
     2     3     4    1
     3     4     5    1
     4     5     1    1
     5    18     1    1
     6    18    27    1
     7    27    28    1
     8    28    29   ar
     9    29    30   ar
    10    30    31   ar
    11    31    32   ar
    12    32    33   ar
    13    18    19    1
    14    19    20    2
    15    19    21   am
    16    21    23    1
    17    23    24    1
    18    24    25   ar
    19    24    26   ar
    20     5     6    1
    21     6     7    1
    22     7     8    1
    23     8     9    1
    24     8    10    1
    25    10    11   ar
    26    11    12   ar
    27    12    13   ar
    28    13    14   ar
    29    14    15    1
    30    14    16   ar
    31     8     3    1
    32    16    10   ar
    33    33    28   ar
    34    21    22    1
    35    15    17    1
@<TRIPOS>MOLECULE
*****
 33 35 0 0 0
SMALL
GASTEIGER

@<TRIPOS>ATOM
      1 C         138.8855  137.7574  164.0240 C.3     1  UNL1        0.0815
      2 C         142.4036  140.0741  167.0663 C.3     1  UNL1        0.0018
      3 C         140.9941  139.6238  166.8205 C.3     1  UNL1        0.0198
      4 C         140.6445  138.9158  165.5452 C.3     1  UNL1        0.0724
      5 N         139.2350  138.4655  165.2994 N.3     1  UNL1       -0.2722
      6 C         138.1750  138.7233  166.3288 C.3     1  UNL1        0.0724
      7 C         138.5245  139.4313  167.6042 C.3     1  UNL1        0.0214
      8 C         139.9340  139.8816  167.8500 C.3     1  UNL1        0.0216
      9 C         139.2853  140.3526  169.1178 C.3     1  UNL1        0.0045
     10 C         141.1182  140.4955  168.5362 C.ar    1  UNL1       -0.0197
     11 C         141.5504  141.8881  168.1840 C.ar    1  UNL1       -0.0041
     12 C         142.7345  142.5020  168.8701 C.ar    1  UNL1        0.0028
     13 C         143.4866  141.7233  169.9084 C.ar    1  UNL1        0.0366
     14 C         143.0545  140.3308  170.2606 C.ar    1  UNL1        0.1334
     15 O         143.8066  139.5521  171.2989 O.3     1  UNL1       -0.5055
     16 C         141.8703  139.7168  169.5745 C.ar    1  UNL1        0.0323
     17 H         144.5463  139.9356  171.7275 H       1  UNL1        0.2922
     18 C         138.9711  138.4845  162.7148 C.3     1  UNL1        0.0967
     19 C         138.1553  139.7231  162.4900 C.2     1  UNL1        0.2240
     20 O         137.3476  139.8716  161.2348 O.2     1  UNL1       -0.2750
     21 N         138.1473  140.8131  163.5204 N.am    1  UNL1       -0.2995
     22 H         138.6774  140.7156  164.3442 H       1  UNL1        0.1498
     23 C         137.3315  142.0517  163.2957 C.3     1  UNL1        0.1316
     24 C         137.9115  143.2027  162.5284 C.2     1  UNL1        0.0702
     25 O         138.0001  143.1382  161.0324 O.co2   1  UNL1       -0.5474
     26 O         138.4027  144.4183  163.2570 O.co2   1  UNL1       -0.5474
     27 C         139.8725  137.9731  161.6304 C.3     1  UNL1        0.0368
     28 C         141.2828  138.4737  161.5292 C.ar    1  UNL1       -0.0217
     29 C         141.6586  139.4440  160.4488 C.ar    1  UNL1       -0.0043
     30 C         143.0689  139.9445  160.3476 C.ar    1  UNL1       -0.0003
     31 C         144.1036  139.4748  161.3267 C.ar    1  UNL1       -0.0000
     32 C         143.7279  138.5045  162.4072 C.ar    1  UNL1       -0.0003
     33 C         142.3175  138.0039  162.5084 C.ar    1  UNL1       -0.0043
@<TRIPOS>UNITY_ATOM_ATTR
25 1
charge -1
@<TRIPOS>BOND
     1     3     2    1
     2     3     4    1
     3     4     5    1
     4     5     1    1
     5    18     1    1
     6    18    27    1
     7    27    28    1
     8    28    29   ar
     9    29    30   ar
    10    30    31   ar
    11    31    32   ar
    12    32    33   ar
    13    18    19    1
    14    19    20    2
    15    19    21   am
    16    21    23    1
    17    23    24    1
    18    24    25   ar
    19    24    26   ar
    20     5     6    1
    21     6     7    1
    22     7     8    1
    23     8     9    1
    24     8    10    1
    25    10    11   ar
    26    11    12   ar
    27    12    13   ar
    28    13    14   ar
    29    14    15    1
    30    14    16   ar
    31     8     3    1
    32    16    10   ar
    33    33    28   ar
    34    21    22    1
    35    15    17    1
@<TRIPOS>MOLECULE
*****
 33 35 0 0 0
SMALL
GASTEIGER

@<TRIPOS>ATOM
      1 C         139.6832  143.8294  163.4819 C.3     1  UNL1        0.0815
      2 C         140.8473  142.6276  168.4013 C.3     1  UNL1        0.0018
      3 C         140.8217  142.2637  166.9463 C.3     1  UNL1        0.0198
      4 C         140.2653  143.2285  165.9416 C.3     1  UNL1        0.0724
      5 N         140.2397  142.8646  164.4866 N.3     1  UNL1       -0.2722
      6 C         140.7706  141.5359  164.0364 C.3     1  UNL1        0.0724
      7 C         141.3271  140.5712  165.0411 C.3     1  UNL1        0.0214
      8 C         141.3527  140.9351  166.4961 C.3     1  UNL1        0.0216
      9 C         141.9665  139.5679  166.5587 C.3     1  UNL1        0.0045
     10 C         141.5914  140.8241  167.9728 C.ar    1  UNL1       -0.0197
     11 C         142.8765  141.3230  168.5643 C.ar    1  UNL1       -0.0041
     12 C         143.1153  141.2121  170.0409 C.ar    1  UNL1        0.0028
     13 C         142.0692  140.6022  170.9262 C.ar    1  UNL1        0.0366
     14 C         140.7842  140.1033  170.3348 C.ar    1  UNL1        0.1334
     15 O         139.7381  139.4934  171.2199 O.3     1  UNL1       -0.5055
     16 C         140.5453  140.2142  168.8581 C.ar    1  UNL1        0.0323
     17 H         139.8872  139.4241  172.1424 H       1  UNL1        0.2922
     18 C         140.5938  144.7995  162.7893 C.3     1  UNL1        0.0967
     19 C         140.1874  145.4049  161.4784 C.2     1  UNL1        0.2240
     20 O         139.2167  146.5481  161.4491 O.2     1  UNL1       -0.2750
     21 N         140.7516  144.8670  160.1969 N.am    1  UNL1       -0.2995
     22 H         141.3887  144.1167  160.2161 H       1  UNL1        0.1498
     23 C         140.3452  145.4723  158.8860 C.3     1  UNL1        0.1316
     24 C         141.3116  145.4959  157.7391 C.2     1  UNL1        0.0702
     25 O         142.5801  146.2896  157.8433 O.co2   1  UNL1       -0.5474
     26 O         141.0094  144.7258  156.4878 O.co2   1  UNL1       -0.5474
     27 C         141.9109  145.1641  163.4075 C.3     1  UNL1        0.0368
     28 C         143.0331  144.1688  163.4237 C.ar    1  UNL1       -0.0217
     29 C         143.6593  143.7657  164.7257 C.ar    1  UNL1       -0.0043
     30 C         144.7814  142.7704  164.7419 C.ar    1  UNL1       -0.0003
     31 C         145.2773  142.1783  163.4561 C.ar    1  UNL1       -0.0000
     32 C         144.6511  142.5815  162.1540 C.ar    1  UNL1       -0.0003
     33 C         143.5290  143.5767  162.1378 C.ar    1  UNL1       -0.0043
@<TRIPOS>UNITY_ATOM_ATTR
25 1
charge -1
@<TRIPOS>BOND
     1     3     2    1
     2     3     4    1
     3     4     5    1
     4     5     1    1
     5    18     1    1
     6    18    27    1
     7    27    28    1
     8    28    29   ar
     9    29    30   ar
    10    30    31   ar
    11    31    32   ar
    12    32    33   ar
    13    18    19    1
    14    19    20    2
    15    19    21   am
    16    21    23    1
    17    23    24    1
    18    24    25   ar
    19    24    26   ar
    20     5     6    1
    21     6     7    1
    22     7     8    1
    23     8     9    1
    24     8    10    1
    25    10    11   ar
    26    11    12   ar
    27    12    13   ar
    28    13    14   ar
    29    14    15    1
    30    14    16   ar
    31     8     3    1
    32    16    10   ar
    33    33    28   ar
    34    21    22    1
    35    15    17    1
@<TRIPOS>MOLECULE
*****
 33 35 0 0 0
SMALL
GASTEIGER

@<TRIPOS>ATOM
      1 C         139.3747  144.6462  164.2031 C.3     1  UNL1        0.0815
      2 C         141.5727  141.9663  168.0745 C.3     1  UNL1        0.0018
      3 C         140.6081  142.0377  166.9280 C.3     1  UNL1        0.0198
      4 C         140.4737  143.3062  166.1388 C.3     1  UNL1        0.0724
      5 N         139.5091  143.3776  164.9923 N.3     1  UNL1       -0.2722
      6 C         138.6789  142.1805  164.6350 C.3     1  UNL1        0.0724
      7 C         138.8133  140.9121  165.4241 C.3     1  UNL1        0.0214
      8 C         139.7779  140.8406  166.5706 C.3     1  UNL1        0.0216
      9 C         139.2148  139.4511  166.6170 C.3     1  UNL1        0.0045
     10 C         140.5469  140.2866  167.7332 C.ar    1  UNL1       -0.0197
     11 C         141.9019  139.6811  167.5160 C.ar    1  UNL1       -0.0041
     12 C         142.6710  139.1270  168.6785 C.ar    1  UNL1        0.0028
     13 C         142.0850  139.1785  170.0584 C.ar    1  UNL1        0.0366
     14 C         140.7300  139.7839  170.2757 C.ar    1  UNL1        0.1334
     15 O         140.1439  139.8354  171.6555 O.3     1  UNL1       -0.5055
     16 C         139.9609  140.3380  169.1131 C.ar    1  UNL1        0.0323
     17 H         140.6243  139.4893  172.3817 H       1  UNL1        0.2922
     18 C         140.3753  144.9745  163.1349 C.3     1  UNL1        0.0967
     19 C         139.9888  144.8745  161.6890 C.2     1  UNL1        0.2240
     20 O         138.7923  144.0643  161.2868 O.2     1  UNL1       -0.2750
     21 N         140.7989  145.5848  160.6453 N.am    1  UNL1       -0.2995
     22 H         141.5842  146.1166  160.9093 H       1  UNL1        0.1498
     23 C         140.4125  145.4848  159.1994 C.3     1  UNL1        0.1316
     24 C         141.4591  145.2101  158.1606 C.2     1  UNL1        0.0702
     25 O         142.4793  146.2583  157.8283 O.co2   1  UNL1       -0.5474
     26 O         141.4856  143.8872  157.4542 O.co2   1  UNL1       -0.5474
     27 C         141.7623  145.4028  163.5126 C.3     1  UNL1        0.0368
     28 C         142.8878  144.4117  163.4818 C.ar    1  UNL1       -0.0217
     29 C         143.4078  143.9080  162.1681 C.ar    1  UNL1       -0.0043
     30 C         144.5333  142.9169  162.1372 C.ar    1  UNL1       -0.0003
     31 C         145.1389  142.4295  163.4201 C.ar    1  UNL1       -0.0000
     32 C         144.6189  142.9332  164.7339 C.ar    1  UNL1       -0.0003
     33 C         143.4934  143.9243  164.7647 C.ar    1  UNL1       -0.0043
@<TRIPOS>UNITY_ATOM_ATTR
25 1
charge -1
@<TRIPOS>BOND
     1     3     2    1
     2     3     4    1
     3     4     5    1
     4     5     1    1
     5    18     1    1
     6    18    27    1
     7    27    28    1
     8    28    29   ar
     9    29    30   ar
    10    30    31   ar
    11    31    32   ar
    12    32    33   ar
    13    18    19    1
    14    19    20    2
    15    19    21   am
    16    21    23    1
    17    23    24    1
    18    24    25   ar
    19    24    26   ar
    20     5     6    1
    21     6     7    1
    22     7     8    1
    23     8     9    1
    24     8    10    1
    25    10    11   ar
    26    11    12   ar
    27    12    13   ar
    28    13    14   ar
    29    14    15    1
    30    14    16   ar
    31     8     3    1
    32    16    10   ar
    33    33    28   ar
    34    21    22    1
    35    15    17    1
@<TRIPOS>MOLECULE
*****
 33 35 0 0 0
SMALL
GASTEIGER

@<TRIPOS>ATOM
      1 C         139.9059  143.0913  163.2322 C.3     1  UNL1        0.0815
      2 C         140.5271  142.5244  168.3599 C.3     1  UNL1        0.0018
      3 C         140.8313  142.0855  166.9581 C.3     1  UNL1        0.0198
      4 C         140.2166  142.8078  165.7961 C.3     1  UNL1        0.0724
      5 N         140.5207  142.3689  164.3943 N.3     1  UNL1       -0.2722
      6 C         141.4396  141.2079  164.1546 C.3     1  UNL1        0.0724
      7 C         142.0543  140.4856  165.3167 C.3     1  UNL1        0.0214
      8 C         141.7502  140.9244  166.7184 C.3     1  UNL1        0.0216
      9 C         142.6750  139.7774  166.9994 C.3     1  UNL1        0.0045
     10 C         141.7672  140.9648  168.2178 C.ar    1  UNL1       -0.0197
     11 C         142.7823  141.8058  168.9338 C.ar    1  UNL1       -0.0041
     12 C         142.7994  141.8462  170.4331 C.ar    1  UNL1        0.0028
     13 C         141.8016  141.0458  171.2165 C.ar    1  UNL1        0.0366
     14 C         140.7866  140.2049  170.5005 C.ar    1  UNL1        0.1334
     15 O         139.7887  139.4045  171.2838 O.3     1  UNL1       -0.5055
     16 C         140.7694  140.1644  169.0011 C.ar    1  UNL1        0.0323
     17 H         139.7994  139.4297  172.2204 H       1  UNL1        0.2922
     18 C         138.8033  142.4459  162.4463 C.3     1  UNL1        0.0967
     19 C         138.7309  142.6362  160.9601 C.2     1  UNL1        0.2240
     20 O         139.0944  143.9596  160.3549 O.2     1  UNL1       -0.2750
     21 N         138.2951  141.5030  160.0792 N.am    1  UNL1       -0.2995
     22 H         138.0565  140.6344  160.4765 H       1  UNL1        0.1498
     23 C         138.2227  141.6933  158.5932 C.3     1  UNL1        0.1316
     24 C         137.8058  140.5543  157.7106 C.2     1  UNL1        0.0702
     25 O         138.7321  139.3943  157.4954 O.co2   1  UNL1       -0.5474
     26 O         136.4626  140.5753  157.0433 O.co2   1  UNL1       -0.5474
     27 C         137.7731  141.6102  163.1464 C.3     1  UNL1        0.0368
     28 C         138.1612  140.2950  163.7545 C.ar    1  UNL1       -0.0217
     29 C         138.0673  140.0981  165.2385 C.ar    1  UNL1       -0.0043
     30 C         138.4554  138.7829  165.8466 C.ar    1  UNL1       -0.0003
     31 C         138.9374  137.6647  164.9707 C.ar    1  UNL1       -0.0000
     32 C         139.0313  137.8616  163.4866 C.ar    1  UNL1       -0.0003
     33 C         138.6432  139.1768  162.8785 C.ar    1  UNL1       -0.0043
@<TRIPOS>UNITY_ATOM_ATTR
25 1
charge -1
@<TRIPOS>BOND
     1     3     2    1
     2     3     4    1
     3     4     5    1
     4     5     1    1
     5    18     1    1
     6    18    27    1
     7    27    28    1
     8    28    29   ar
     9    29    30   ar
    10    30    31   ar
    11    31    32   ar
    12    32    33   ar
    13    18    19    1
    14    19    20    2
    15    19    21   am
    16    21    23    1
    17    23    24    1
    18    24    25   ar
    19    24    26   ar
    20     5     6    1
    21     6     7    1
    22     7     8    1
    23     8     9    1
    24     8    10    1
    25    10    11   ar
    26    11    12   ar
    27    12    13   ar
    28    13    14   ar
    29    14    15    1
    30    14    16   ar
    31     8     3    1
    32    16    10   ar
    33    33    28   ar
    34    21    22    1
    35    15    17    1
@<TRIPOS>MOLECULE
*****
 33 35 0 0 0
SMALL
GASTEIGER

@<TRIPOS>ATOM
      1 C         139.6226  143.5345  163.3403 C.3     1  UNL1        0.0815
      2 C         140.3460  142.8616  168.4417 C.3     1  UNL1        0.0018
      3 C         140.6592  142.4837  167.0242 C.3     1  UNL1        0.0198
      4 C         139.9843  143.1980  165.8910 C.3     1  UNL1        0.0724
      5 N         140.2975  142.8201  164.4736 N.3     1  UNL1       -0.2722
      6 C         141.2856  141.7280  164.1894 C.3     1  UNL1        0.0724
      7 C         141.9605  141.0137  165.3226 C.3     1  UNL1        0.0214
      8 C         141.6473  141.3915  166.7400 C.3     1  UNL1        0.0216
      9 C         142.6472  140.2988  166.9766 C.3     1  UNL1        0.0045
     10 C         141.6814  141.3898  168.2396 C.ar    1  UNL1       -0.0197
     11 C         142.6203  142.3042  168.9694 C.ar    1  UNL1       -0.0041
     12 C         142.6545  142.3026  170.4690 C.ar    1  UNL1        0.0028
     13 C         141.7498  141.3866  171.2388 C.ar    1  UNL1        0.0366
     14 C         140.8110  140.4723  170.5091 C.ar    1  UNL1        0.1334
     15 O         139.9064  139.5563  171.2788 O.3     1  UNL1       -0.5055
     16 C         140.7768  140.4739  169.0095 C.ar    1  UNL1        0.0323
     17 H         139.9277  139.5552  172.2156 H       1  UNL1        0.2922
     18 C         138.7491  142.7730  162.3878 C.3     1  UNL1        0.0967
     19 C         138.9380  142.9299  160.9080 C.2     1  UNL1        0.2240
     20 O         138.3885  141.8980  159.9682 O.2     1  UNL1       -0.2750
     21 N         139.6764  144.1187  160.3681 N.am    1  UNL1       -0.2995
     22 H         140.0370  144.7960  160.9849 H       1  UNL1        0.1498
     23 C         139.8653  144.2757  158.8884 C.3     1  UNL1        0.1316
     24 C         140.6092  145.4612  158.3488 C.2     1  UNL1        0.0702
     25 O         142.0495  145.6713  158.7112 O.co2   1  UNL1       -0.5474
     26 O         139.9128  146.4366  157.4468 O.co2   1  UNL1       -0.5474
     27 C         137.6868  141.8547  162.9151 C.3     1  UNL1        0.0368
     28 C         138.0680  140.5364  163.5208 C.ar    1  UNL1       -0.0217
     29 C         138.4797  139.3962  162.6374 C.ar    1  UNL1       -0.0043
     30 C         138.8609  138.0779  163.2431 C.ar    1  UNL1       -0.0003
     31 C         138.8304  137.8999  164.7321 C.ar    1  UNL1       -0.0000
     32 C         138.4186  139.0401  165.6156 C.ar    1  UNL1       -0.0003
     33 C         138.0374  140.3584  165.0099 C.ar    1  UNL1       -0.0043
@<TRIPOS>UNITY_ATOM_ATTR
25 1
charge -1
@<TRIPOS>BOND
     1     3     2    1
     2     3     4    1
     3     4     5    1
     4     5     1    1
     5    18     1    1
     6    18    27    1
     7    27    28    1
     8    28    29   ar
     9    29    30   ar
    10    30    31   ar
    11    31    32   ar
    12    32    33   ar
    13    18    19    1
    14    19    20    2
    15    19    21   am
    16    21    23    1
    17    23    24    1
    18    24    25   ar
    19    24    26   ar
    20     5     6    1
    21     6     7    1
    22     7     8    1
    23     8     9    1
    24     8    10    1
    25    10    11   ar
    26    11    12   ar
    27    12    13   ar
    28    13    14   ar
    29    14    15    1
    30    14    16   ar
    31     8     3    1
    32    16    10   ar
    33    33    28   ar
    34    21    22    1
    35    15    17    1
@<TRIPOS>MOLECULE
*****
 33 35 0 0 0
SMALL
GASTEIGER

@<TRIPOS>ATOM
      1 C         138.8648  137.8920  164.0386 C.3     1  UNL1        0.0815
      2 C         142.3747  140.1729  167.1174 C.3     1  UNL1        0.0018
      3 C         140.9708  139.7048  166.8721 C.3     1  UNL1        0.0198
      4 C         140.6197  139.0325  165.5780 C.3     1  UNL1        0.0724
      5 N         139.2159  138.5643  165.3328 N.3     1  UNL1       -0.2722
      6 C         138.1632  138.7685  166.3816 C.3     1  UNL1        0.0724
      7 C         138.5143  139.4408  167.6757 C.3     1  UNL1        0.0214
      8 C         139.9181  139.9089  167.9209 C.3     1  UNL1        0.0216
      9 C         139.2754  140.3260  169.2105 C.3     1  UNL1        0.0045
     10 C         141.0987  140.5219  168.6141 C.ar    1  UNL1       -0.0197
     11 C         141.4927  141.9378  168.3139 C.ar    1  UNL1       -0.0041
     12 C         142.6732  142.5508  169.0070 C.ar    1  UNL1        0.0028
     13 C         143.4598  141.7481  170.0004 C.ar    1  UNL1        0.0366
     14 C         143.0658  140.3323  170.3007 C.ar    1  UNL1        0.1334
     15 O         143.8523  139.5294  171.2941 O.3     1  UNL1       -0.5055
     16 C         141.8852  139.7191  169.6075 C.ar    1  UNL1        0.0323
     17 H         144.5898  139.9123  171.7271 H       1  UNL1        0.2922
     18 C         138.6773  138.7099  162.7953 C.3     1  UNL1        0.0967
     19 C         139.4938  138.4136  161.5723 C.2     1  UNL1        0.2240
     20 O         140.7835  137.6578  161.6966 O.2     1  UNL1       -0.2750
     21 N         139.0205  138.8730  160.2251 N.am    1  UNL1       -0.2995
     22 H         138.1740  139.3691  160.1436 H       1  UNL1        0.1498
     23 C         139.8369  138.5767  159.0022 C.3     1  UNL1        0.1316
     24 C         139.5761  139.3229  157.7274 C.2     1  UNL1        0.0702
     25 O         140.6903  139.5480  156.7487 O.co2   1  UNL1       -0.5474
     26 O         138.2011  139.8440  157.4312 O.co2   1  UNL1       -0.5474
     27 C         137.6733  139.8242  162.7749 C.3     1  UNL1        0.0368
     28 C         138.1111  141.2333  163.0447 C.ar    1  UNL1       -0.0217
     29 C         138.3978  142.1613  161.9017 C.ar    1  UNL1       -0.0043
     30 C         138.8356  143.5705  162.1714 C.ar    1  UNL1       -0.0003
     31 C         138.9867  144.0515  163.5841 C.ar    1  UNL1       -0.0000
     32 C         138.6999  143.1234  164.7272 C.ar    1  UNL1       -0.0003
     33 C         138.2621  141.7143  164.4574 C.ar    1  UNL1       -0.0043
@<TRIPOS>UNITY_ATOM_ATTR
25 1
charge -1
@<TRIPOS>BOND
     1     3     2    1
     2     3     4    1
     3     4     5    1
     4     5     1    1
     5    18     1    1
     6    18    27    1
     7    27    28    1
     8    28    29   ar
     9    29    30   ar
    10    30    31   ar
    11    31    32   ar
    12    32    33   ar
    13    18    19    1
    14    19    20    2
    15    19    21   am
    16    21    23    1
    17    23    24    1
    18    24    25   ar
    19    24    26   ar
    20     5     6    1
    21     6     7    1
    22     7     8    1
    23     8     9    1
    24     8    10    1
    25    10    11   ar
    26    11    12   ar
    27    12    13   ar
    28    13    14   ar
    29    14    15    1
    30    14    16   ar
    31     8     3    1
    32    16    10   ar
    33    33    28   ar
    34    21    22    1
    35    15    17    1
@<TRIPOS>MOLECULE
*****
 33 35 0 0 0
SMALL
GASTEIGER

@<TRIPOS>ATOM
      1 C         138.6521  139.3817  163.2240 C.3     1  UNL1        0.0815
      2 C         141.3499  142.1567  166.6911 C.3     1  UNL1        0.0018
      3 C         140.3510  141.0812  166.3824 C.3     1  UNL1        0.0198
      4 C         140.0010  140.7692  164.9576 C.3     1  UNL1        0.0724
      5 N         139.0021  139.6936  164.6489 N.3     1  UNL1       -0.2722
      6 C         138.3532  138.9300  165.7650 C.3     1  UNL1        0.0724
      7 C         138.7032  139.2419  167.1898 C.3     1  UNL1        0.0214
      8 C         139.7021  140.3175  167.4985 C.3     1  UNL1        0.0216
      9 C         139.3586  139.8739  168.8897 C.3     1  UNL1        0.0045
     10 C         140.5817  141.2390  168.2904 C.ar    1  UNL1       -0.0197
     11 C         142.0215  140.8871  168.5211 C.ar    1  UNL1       -0.0041
     12 C         142.9012  141.8085  169.3130 C.ar    1  UNL1        0.0028
     13 C         142.3411  143.0818  169.8743 C.ar    1  UNL1        0.0366
     14 C         140.9013  143.4337  169.6436 C.ar    1  UNL1        0.1334
     15 O         140.3412  144.7070  170.2048 O.3     1  UNL1       -0.5055
     16 C         140.0216  142.5123  168.8517 C.ar    1  UNL1        0.0323
     17 H         140.8906  145.2826  170.6995 H       1  UNL1        0.2922
     18 C         139.6216  138.6299  162.3609 C.3     1  UNL1        0.0967
     19 C         139.6487  138.8684  160.8802 C.2     1  UNL1        0.2240
     20 O         138.4134  139.3435  160.1743 O.2     1  UNL1       -0.2750
     21 N         140.9111  138.6316  160.1054 N.am    1  UNL1       -0.2995
     22 H         141.7218  138.3198  160.5687 H       1  UNL1        0.1498
     23 C         140.9382  138.8701  158.6248 C.3     1  UNL1        0.1316
     24 C         141.7979  138.0138  157.7428 C.2     1  UNL1        0.0702
     25 O         141.1658  137.0035  156.8320 O.co2   1  UNL1       -0.5474
     26 O         143.2897  138.1678  157.7718 O.co2   1  UNL1       -0.5474
     27 C         140.5639  137.6397  162.9785 C.3     1  UNL1        0.0368
     28 C         141.7702  138.1200  163.7295 C.ar    1  UNL1       -0.0217
     29 C         142.8430  138.8863  163.0142 C.ar    1  UNL1       -0.0043
     30 C         144.0494  139.3666  163.7653 C.ar    1  UNL1       -0.0003
     31 C         144.1829  139.0806  165.2316 C.ar    1  UNL1       -0.0000
     32 C         143.1100  138.3142  165.9471 C.ar    1  UNL1       -0.0003
     33 C         141.9037  137.8339  165.1960 C.ar    1  UNL1       -0.0043
@<TRIPOS>UNITY_ATOM_ATTR
25 1
charge -1
@<TRIPOS>BOND
     1     3     2    1
     2     3     4    1
     3     4     5    1
     4     5     1    1
     5    18     1    1
     6    18    27    1
     7    27    28    1
     8    28    29   ar
     9    29    30   ar
    10    30    31   ar
    11    31    32   ar
    12    32    33   ar
    13    18    19    1
    14    19    20    2
    15    19    21   am
    16    21    23    1
    17    23    24    1
    18    24    25   ar
    19    24    26   ar
    20     5     6    1
    21     6     7    1
    22     7     8    1
    23     8     9    1
    24     8    10    1
    25    10    11   ar
    26    11    12   ar
    27    12    13   ar
    28    13    14   ar
    29    14    15    1
    30    14    16   ar
    31     8     3    1
    32    16    10   ar
    33    33    28   ar
    34    21    22    1
    35    15    17    1
@<TRIPOS>MOLECULE
*****
 33 35 0 0 0
SMALL
GASTEIGER

@<TRIPOS>ATOM
      1 C         144.1055  139.1386  163.4255 C.3     1  UNL1        0.0815
      2 C         142.3022  142.5093  166.9449 C.3     1  UNL1        0.0018
      3 C         142.7365  141.1209  166.5793 C.3     1  UNL1        0.0198
      4 C         143.2038  140.8239  165.1852 C.3     1  UNL1        0.0724
      5 N         143.6381  139.4355  164.8196 N.3     1  UNL1       -0.2722
      6 C         143.6050  138.3440  165.8480 C.3     1  UNL1        0.0724
      7 C         143.1377  138.6410  167.2420 C.3     1  UNL1        0.0214
      8 C         142.7034  140.0294  167.6076 C.3     1  UNL1        0.0216
      9 C         142.4943  139.3365  168.9215 C.3     1  UNL1        0.0045
     10 C         142.1965  141.1771  168.4296 C.ar    1  UNL1       -0.0197
     11 C         140.7524  141.5754  168.3515 C.ar    1  UNL1       -0.0041
     12 C         140.2454  142.7231  169.1734 C.ar    1  UNL1        0.0028
     13 C         141.1824  143.4726  170.0736 C.ar    1  UNL1        0.0366
     14 C         142.6264  143.0744  170.1518 C.ar    1  UNL1        0.1334
     15 O         143.5635  143.8238  171.0519 O.3     1  UNL1       -0.5055
     16 C         143.1335  141.9266  169.3298 C.ar    1  UNL1        0.0323
     17 H         143.2468  144.5407  171.5654 H       1  UNL1        0.2922
     18 C         143.1048  138.9002  162.3338 C.3     1  UNL1        0.0967
     19 C         143.2689  139.5769  161.0051 C.2     1  UNL1        0.2240
     20 O         144.1411  138.9603  159.9521 O.2     1  UNL1       -0.2750
     21 N         142.5608  140.8702  160.7296 N.am    1  UNL1       -0.2995
     22 H         141.9883  141.2749  161.4208 H       1  UNL1        0.1498
     23 C         142.7248  141.5469  159.4010 C.3     1  UNL1        0.1316
     24 C         143.6350  142.7320  159.2703 C.2     1  UNL1        0.0702
     25 O         145.0304  142.6699  159.8169 O.co2   1  UNL1       -0.5474
     26 O         143.1497  143.9792  158.5928 O.co2   1  UNL1       -0.5474
     27 C         141.9400  137.9853  162.5707 C.3     1  UNL1        0.0368
     28 C         140.8067  138.4259  163.4490 C.ar    1  UNL1       -0.0217
     29 C         140.2756  139.8247  163.3429 C.ar    1  UNL1       -0.0043
     30 C         139.1423  140.2653  164.2213 C.ar    1  UNL1       -0.0003
     31 C         138.5401  139.3071  165.2057 C.ar    1  UNL1       -0.0000
     32 C         139.0712  137.9082  165.3119 C.ar    1  UNL1       -0.0003
     33 C         140.2045  137.4676  164.4335 C.ar    1  UNL1       -0.0043
@<TRIPOS>UNITY_ATOM_ATTR
25 1
charge -1
@<TRIPOS>BOND
     1     3     2    1
     2     3     4    1
     3     4     5    1
     4     5     1    1
     5    18     1    1
     6    18    27    1
     7    27    28    1
     8    28    29   ar
     9    29    30   ar
    10    30    31   ar
    11    31    32   ar
    12    32    33   ar
    13    18    19    1
    14    19    20    2
    15    19    21   am
    16    21    23    1
    17    23    24    1
    18    24    25   ar
    19    24    26   ar
    20     5     6    1
    21     6     7    1
    22     7     8    1
    23     8     9    1
    24     8    10    1
    25    10    11   ar
    26    11    12   ar
    27    12    13   ar
    28    13    14   ar
    29    14    15    1
    30    14    16   ar
    31     8     3    1
    32    16    10   ar
    33    33    28   ar
    34    21    22    1
    35    15    17    1
