@<TRIPOS>MOLECULE
*****
 32 34 0 0 0
SMALL
GASTEIGER

@<TRIPOS>ATOM
      1 C         140.4168  139.9336  166.6587 C.ar    1  UNL1        0.1409
      2 N         141.4980  139.4964  165.7153 N.ar    1  UNL1       -0.1986
      3 C         142.8581  139.1477  166.2430 C.ar    1  UNL1        0.2181
      4 N         143.1370  139.2360  167.7142 N.ar    1  UNL1       -0.2120
      5 C         142.0559  139.6732  168.6576 C.ar    1  UNL1        0.1091
      6 C         140.6958  140.0220  168.1299 C.ar    1  UNL1        0.1040
      7 C         139.6147  140.4592  169.0733 C.2     1  UNL1        0.2470
      8 N         139.7784  141.7201  169.8691 N.am    1  UNL1       -0.3252
      9 O         138.3698  139.6355  169.2208 O.2     1  UNL1       -0.2702
     10 H         140.5955  142.2607  169.7723 H       1  UNL1        0.1453
     11 H         139.0688  142.0070  170.4883 H       1  UNL1        0.1453
     12 N         139.0568  140.2824  166.1309 N.pl3   1  UNL1       -0.2977
     13 H         138.2776  139.7333  166.3770 H       1  UNL1        0.1536
     14 C         138.5382  143.8387  163.4227 C.ar    1  UNL1        0.1388
     15 C         137.7520  142.5856  163.1741 C.ar    1  UNL1        0.0382
     16 C         137.9249  141.4002  164.0768 C.ar    1  UNL1        0.0178
     17 C         138.8839  141.4678  165.2282 C.ar    1  UNL1        0.0496
     18 C         139.6700  142.7209  165.4768 C.ar    1  UNL1        0.0178
     19 C         139.4972  143.9063  164.5741 C.ar    1  UNL1        0.0382
     20 C         139.5607  145.8255  162.0973 C.3     1  UNL1        0.2525
     21 O         138.3653  145.0241  162.5200 O.3     1  UNL1       -0.4714
     22 N         143.9392  138.7105  165.2996 N.pl3   1  UNL1       -0.3031
     23 H         144.3979  137.8509  165.4409 H       1  UNL1        0.1496
     24 C         144.3216  139.5830  164.1409 C.3     1  UNL1        0.0908
     25 C         145.2166  140.7672  164.3571 C.3     1  UNL1        0.0531
     26 C         145.5989  141.6398  163.1985 C.3     1  UNL1        0.1440
     27 O         145.0862  141.3281  161.8236 O.3     1  UNL1       -0.3522
     28 C         144.1913  140.1439  161.6075 C.3     1  UNL1        0.1592
     29 C         143.8089  139.2714  162.7662 C.3     1  UNL1        0.0990
     30 N         142.9139  138.0872  162.5501 N.3     1  UNL1       -0.3189
     31 H         142.7593  137.6112  163.4388 H       1  UNL1        0.1189
     32 H         143.3540  137.4441  161.8919 H       1  UNL1        0.1189
@<TRIPOS>BOND
     1    20    21    1
     2    21    14    1
     3    14    15   ar
     4    15    16   ar
     5    16    17   ar
     6    17    12    1
     7    12     1    1
     8     1     2   ar
     9     2     3   ar
    10     3    22    1
    11    24    22    1
    12    24    25    1
    13    25    26    1
    14    26    27    1
    15    27    28    1
    16    28    29    1
    17    29    30    1
    18     3     4   ar
    19     4     5   ar
    20     5     6   ar
    21     6     7    1
    22     7     8   am
    23     7     9    2
    24    17    18   ar
    25    18    19   ar
    26    19    14   ar
    27     6     1   ar
    28    29    24    1
    29    12    13    1
    30    22    23    1
    31    30    31    1
    32    30    32    1
    33     8    10    1
    34     8    11    1
@<TRIPOS>MOLECULE
*****
 32 34 0 0 0
SMALL
GASTEIGER

@<TRIPOS>ATOM
      1 C         140.2124  139.6039  165.8245 C.ar    1  UNL1        0.1409
      2 N         140.9003  139.8046  167.1423 N.ar    1  UNL1       -0.1986
      3 C         142.2558  139.2077  167.3794 C.ar    1  UNL1        0.2181
      4 N         142.9235  138.4101  166.2987 N.ar    1  UNL1       -0.2120
      5 C         142.2357  138.2094  164.9809 C.ar    1  UNL1        0.1091
      6 C         140.8801  138.8063  164.7437 C.ar    1  UNL1        0.1040
      7 C         140.1923  138.6056  163.4259 C.2     1  UNL1        0.2470
      8 N         140.8960  138.9636  162.1505 N.am    1  UNL1       -0.3252
      9 O         138.8009  138.0470  163.3836 O.2     1  UNL1       -0.2702
     10 H         141.8092  139.3302  162.1783 H       1  UNL1        0.1453
     11 H         140.4445  138.8318  161.2856 H       1  UNL1        0.1453
     12 N         138.8569  140.2008  165.5874 N.pl3   1  UNL1       -0.2977
     13 H         138.0549  139.7613  165.9518 H       1  UNL1        0.1536
     14 C         138.4561  144.0008  163.2105 C.ar    1  UNL1        0.1388
     15 C         137.6723  142.7839  162.8171 C.ar    1  UNL1        0.0382
     16 C         137.8059  141.5172  163.6094 C.ar    1  UNL1        0.0178
     17 C         138.7233  141.4675  164.7951 C.ar    1  UNL1        0.0496
     18 C         139.5071  142.6844  165.1885 C.ar    1  UNL1        0.0178
     19 C         139.3735  143.9510  164.3962 C.ar    1  UNL1        0.0382
     20 C         139.5476  145.9606  161.8998 C.3     1  UNL1        0.2525
     21 O         138.3225  145.2674  162.4182 O.3     1  UNL1       -0.4714
     22 N         142.9436  139.4084  168.6972 N.pl3   1  UNL1       -0.3031
     23 H         143.6152  138.7580  169.0061 H       1  UNL1        0.1496
     24 C         142.6083  140.5999  169.5445 C.3     1  UNL1        0.0908
     25 C         143.4624  141.8313  169.4785 C.3     1  UNL1        0.0531
     26 C         143.1271  143.0228  170.3258 C.3     1  UNL1        0.1440
     27 O         141.9377  142.9829  171.2390 O.3     1  UNL1       -0.3522
     28 C         141.0837  141.7516  171.3049 C.3     1  UNL1        0.1592
     29 C         141.4190  140.5601  170.4576 C.3     1  UNL1        0.0990
     30 N         140.5650  139.3287  170.5235 N.3     1  UNL1       -0.3189
     31 H         140.9358  138.6233  169.8868 H       1  UNL1        0.1189
     32 H         139.6098  139.5625  170.2528 H       1  UNL1        0.1189
@<TRIPOS>BOND
     1    20    21    1
     2    21    14    1
     3    14    15   ar
     4    15    16   ar
     5    16    17   ar
     6    17    12    1
     7    12     1    1
     8     1     2   ar
     9     2     3   ar
    10     3    22    1
    11    24    22    1
    12    24    25    1
    13    25    26    1
    14    26    27    1
    15    27    28    1
    16    28    29    1
    17    29    30    1
    18     3     4   ar
    19     4     5   ar
    20     5     6   ar
    21     6     7    1
    22     7     8   am
    23     7     9    2
    24    17    18   ar
    25    18    19   ar
    26    19    14   ar
    27     6     1   ar
    28    29    24    1
    29    12    13    1
    30    22    23    1
    31    30    31    1
    32    30    32    1
    33     8    10    1
    34     8    11    1
@<TRIPOS>MOLECULE
*****
 32 34 0 0 0
SMALL
GASTEIGER

@<TRIPOS>ATOM
      1 C         140.1952  141.8393  167.5143 C.ar    1  UNL1        0.1409
      2 N         139.7062  140.7634  166.5905 N.ar    1  UNL1       -0.1986
      3 C         138.9960  139.5643  167.1452 C.ar    1  UNL1        0.2181
      4 N         138.7749  139.4410  168.6237 N.ar    1  UNL1       -0.2120
      5 C         139.2639  140.5168  169.5475 C.ar    1  UNL1        0.1091
      6 C         139.9741  141.7160  168.9928 C.ar    1  UNL1        0.1040
      7 C         140.4631  142.7918  169.9166 C.2     1  UNL1        0.2470
      8 N         141.3135  142.4351  171.0996 N.am    1  UNL1       -0.3252
      9 O         140.1018  144.2243  169.6573 O.2     1  UNL1       -0.2702
     10 H         141.5507  141.4949  171.2698 H       1  UNL1        0.1453
     11 H         141.6345  143.1413  171.7059 H       1  UNL1        0.1453
     12 N         140.9054  143.0384  166.9596 N.pl3   1  UNL1       -0.2977
     13 H         141.6403  143.4534  167.4665 H       1  UNL1        0.1536
     14 C         139.6768  144.7391  162.9787 C.ar    1  UNL1        0.1388
     15 C         141.0553  144.1765  163.1607 C.ar    1  UNL1        0.0382
     16 C         141.4648  143.6096  164.4876 C.ar    1  UNL1        0.0178
     17 C         140.4959  143.6053  165.6326 C.ar    1  UNL1        0.0496
     18 C         139.1173  144.1679  165.4506 C.ar    1  UNL1        0.0178
     19 C         138.7078  144.7347  164.1236 C.ar    1  UNL1        0.0382
     20 C         140.2920  145.5132  160.5761 C.3     1  UNL1        0.2525
     21 O         139.2672  145.3060  161.6517 O.3     1  UNL1       -0.4714
     22 N         138.5069  138.4884  166.2214 N.pl3   1  UNL1       -0.3031
     23 H         137.7878  137.8811  166.5101 H       1  UNL1        0.1496
     24 C         139.1135  138.3378  164.8578 C.3     1  UNL1        0.0908
     25 C         140.1753  137.3055  164.6191 C.3     1  UNL1        0.0531
     26 C         140.7818  137.1550  163.2555 C.3     1  UNL1        0.1440
     27 O         140.3266  138.0368  162.1306 O.3     1  UNL1       -0.3522
     28 C         139.2648  139.0690  162.3694 C.3     1  UNL1        0.1592
     29 C         138.6582  139.2195  163.7330 C.3     1  UNL1        0.0990
     30 N         137.5964  140.2518  163.9718 N.3     1  UNL1       -0.3189
     31 H         137.2998  140.2151  164.9470 H       1  UNL1        0.1189
     32 H         136.7975  140.0642  163.3661 H       1  UNL1        0.1189
@<TRIPOS>BOND
     1    20    21    1
     2    21    14    1
     3    14    15   ar
     4    15    16   ar
     5    16    17   ar
     6    17    12    1
     7    12     1    1
     8     1     2   ar
     9     2     3   ar
    10     3    22    1
    11    24    22    1
    12    24    25    1
    13    25    26    1
    14    26    27    1
    15    27    28    1
    16    28    29    1
    17    29    30    1
    18     3     4   ar
    19     4     5   ar
    20     5     6   ar
    21     6     7    1
    22     7     8   am
    23     7     9    2
    24    17    18   ar
    25    18    19   ar
    26    19    14   ar
    27     6     1   ar
    28    29    24    1
    29    12    13    1
    30    22    23    1
    31    30    31    1
    32    30    32    1
    33     8    10    1
    34     8    11    1
@<TRIPOS>MOLECULE
*****
 32 34 0 0 0
SMALL
GASTEIGER

@<TRIPOS>ATOM
      1 C         140.9936  141.9340  167.1656 C.ar    1  UNL1        0.1409
      2 N         141.8243  141.1244  166.2145 N.ar    1  UNL1       -0.1986
      3 C         142.5827  139.9294  166.7112 C.ar    1  UNL1        0.2181
      4 N         142.5105  139.5440  168.1590 N.ar    1  UNL1       -0.2120
      5 C         141.6799  140.3535  169.1102 C.ar    1  UNL1        0.1091
      6 C         140.9215  141.5486  168.6135 C.ar    1  UNL1        0.1040
      7 C         140.0909  142.3581  169.5646 C.2     1  UNL1        0.2470
      8 N         139.2069  141.6694  170.5617 N.am    1  UNL1       -0.3252
      9 O         140.1443  143.8564  169.5187 O.2     1  UNL1       -0.2702
     10 H         139.1718  140.6860  170.5918 H       1  UNL1        0.1453
     11 H         138.6617  142.2007  171.1859 H       1  UNL1        0.1453
     12 N         140.2352  143.1290  166.6689 N.pl3   1  UNL1       -0.2977
     13 H         140.1525  143.9299  167.2355 H       1  UNL1        0.1536
     14 C         138.3380  143.0533  162.5891 C.ar    1  UNL1        0.1388
     15 C         137.9987  141.9925  163.5938 C.ar    1  UNL1        0.0382
     16 C         138.6311  142.0177  164.9537 C.ar    1  UNL1        0.0178
     17 C         139.6028  143.1038  165.3090 C.ar    1  UNL1        0.0496
     18 C         139.9421  144.1646  164.3043 C.ar    1  UNL1        0.0178
     19 C         139.3097  144.1394  162.9444 C.ar    1  UNL1        0.0382
     20 C         138.4673  142.4825  160.0578 C.3     1  UNL1        0.2525
     21 O         137.7056  143.0281  161.2292 O.3     1  UNL1       -0.4714
     22 N         143.4134  139.1198  165.7601 N.pl3   1  UNL1       -0.3031
     23 H         144.3712  138.9798  165.9393 H       1  UNL1        0.1496
     24 C         142.7845  138.5233  164.5358 C.3     1  UNL1        0.0908
     25 C         141.4923  137.7698  164.6477 C.3     1  UNL1        0.0531
     26 C         140.8634  137.1734  163.4234 C.3     1  UNL1        0.1440
     27 O         141.5269  137.3305  162.0872 O.3     1  UNL1       -0.3522
     28 C         142.8190  138.0840  161.9754 C.3     1  UNL1        0.1592
     29 C         143.4479  138.6804  163.1997 C.3     1  UNL1        0.0990
     30 N         144.7400  139.4338  163.0878 N.3     1  UNL1       -0.3189
     31 H         145.0201  139.7672  164.0102 H       1  UNL1        0.1189
     32 H         144.6165  140.2295  162.4617 H       1  UNL1        0.1189
@<TRIPOS>BOND
     1    20    21    1
     2    21    14    1
     3    14    15   ar
     4    15    16   ar
     5    16    17   ar
     6    17    12    1
     7    12     1    1
     8     1     2   ar
     9     2     3   ar
    10     3    22    1
    11    24    22    1
    12    24    25    1
    13    25    26    1
    14    26    27    1
    15    27    28    1
    16    28    29    1
    17    29    30    1
    18     3     4   ar
    19     4     5   ar
    20     5     6   ar
    21     6     7    1
    22     7     8   am
    23     7     9    2
    24    17    18   ar
    25    18    19   ar
    26    19    14   ar
    27     6     1   ar
    28    29    24    1
    29    12    13    1
    30    22    23    1
    31    30    31    1
    32    30    32    1
    33     8    10    1
    34     8    11    1
@<TRIPOS>MOLECULE
*****
 32 34 0 0 0
SMALL
GASTEIGER

@<TRIPOS>ATOM
      1 C         140.5720  140.7537  167.3380 C.ar    1  UNL1        0.1409
      2 N         141.6290  140.8841  166.2816 N.ar    1  UNL1       -0.1986
      3 C         142.8926  141.6376  166.5740 C.ar    1  UNL1        0.2181
      4 N         143.0993  142.2607  167.9227 N.ar    1  UNL1       -0.2120
      5 C         142.0424  142.1303  168.9790 C.ar    1  UNL1        0.1091
      6 C         140.7787  141.3768  168.6867 C.ar    1  UNL1        0.1040
      7 C         139.7218  141.2465  169.7430 C.2     1  UNL1        0.2470
      8 N         139.4656  142.3799  170.6915 N.am    1  UNL1       -0.3252
      9 O         138.9210  139.9827  169.8508 O.2     1  UNL1       -0.2702
     10 H         139.9911  143.2094  170.6208 H       1  UNL1        0.1453
     11 H         138.7719  142.2943  171.3848 H       1  UNL1        0.1453
     12 N         139.3084  140.0002  167.0456 N.pl3   1  UNL1       -0.2977
     13 H         138.6702  139.8093  167.7705 H       1  UNL1        0.1536
     14 C         138.4347  138.6122  162.8551 C.ar    1  UNL1        0.1388
     15 C         138.1039  140.0169  163.2642 C.ar    1  UNL1        0.0382
     16 C         138.3952  140.4796  164.6610 C.ar    1  UNL1        0.0178
     17 C         139.0172  139.5376  165.6488 C.ar    1  UNL1        0.0496
     18 C         139.3480  138.1329  165.2397 C.ar    1  UNL1        0.0178
     19 C         139.0567  137.6702  163.8428 C.ar    1  UNL1        0.0382
     20 C         139.1515  138.3703  160.3696 C.3     1  UNL1        0.2525
     21 O         138.1435  138.1496  161.4583 O.3     1  UNL1       -0.4714
     22 N         143.9496  141.7679  165.5176 N.pl3   1  UNL1       -0.3031
     23 H         144.7749  141.2346  165.5786 H       1  UNL1        0.1496
     24 C         143.7491  142.7109  164.3684 C.3     1  UNL1        0.0908
     25 C         142.5517  143.6138  164.3393 C.3     1  UNL1        0.0531
     26 C         142.3512  144.5568  163.1900 C.3     1  UNL1        0.1440
     27 O         143.3482  144.5967  162.0700 O.3     1  UNL1       -0.3522
     28 C         144.5456  143.6938  162.0991 C.3     1  UNL1        0.1592
     29 C         144.7460  142.7509  163.2484 C.3     1  UNL1        0.0990
     30 N         145.9434  141.8479  163.2775 N.3     1  UNL1       -0.3189
     31 H         145.9200  141.2794  164.1241 H       1  UNL1        0.1189
     32 H         146.7940  142.4108  163.2694 H       1  UNL1        0.1189
@<TRIPOS>BOND
     1    20    21    1
     2    21    14    1
     3    14    15   ar
     4    15    16   ar
     5    16    17   ar
     6    17    12    1
     7    12     1    1
     8     1     2   ar
     9     2     3   ar
    10     3    22    1
    11    24    22    1
    12    24    25    1
    13    25    26    1
    14    26    27    1
    15    27    28    1
    16    28    29    1
    17    29    30    1
    18     3     4   ar
    19     4     5   ar
    20     5     6   ar
    21     6     7    1
    22     7     8   am
    23     7     9    2
    24    17    18   ar
    25    18    19   ar
    26    19    14   ar
    27     6     1   ar
    28    29    24    1
    29    12    13    1
    30    22    23    1
    31    30    31    1
    32    30    32    1
    33     8    10    1
    34     8    11    1
@<TRIPOS>MOLECULE
*****
 32 34 0 0 0
SMALL
GASTEIGER

@<TRIPOS>ATOM
      1 C         141.9307  140.6794  167.1914 C.ar    1  UNL1        0.1409
      2 N         140.7548  140.1728  166.4099 N.ar    1  UNL1       -0.1986
      3 C         139.4981  139.7695  167.1227 C.ar    1  UNL1        0.2181
      4 N         139.4173  139.8728  168.6169 N.ar    1  UNL1       -0.2120
      5 C         140.5931  140.3794  169.3984 C.ar    1  UNL1        0.1091
      6 C         141.8499  140.7827  168.6857 C.ar    1  UNL1        0.1040
      7 C         143.0257  141.2892  169.4672 C.2     1  UNL1        0.2470
      8 N         143.5301  140.5156  170.6492 N.am    1  UNL1       -0.3252
      9 O         143.6971  142.5693  169.0667 O.2     1  UNL1       -0.2702
     10 H         143.0894  139.6754  170.9121 H       1  UNL1        0.1453
     11 H         144.3019  140.8481  171.1621 H       1  UNL1        0.1453
     12 N         143.1874  141.0826  166.4787 N.pl3   1  UNL1       -0.2977
     13 H         144.0631  140.7925  166.8226 H       1  UNL1        0.1536
     14 C         142.9551  143.6186  162.7686 C.ar    1  UNL1        0.1388
     15 C         143.7777  142.3643  162.7694 C.ar    1  UNL1        0.0382
     16 C         143.8551  141.5190  164.0061 C.ar    1  UNL1        0.0178
     17 C         143.1100  141.9279  165.2420 C.ar    1  UNL1        0.0496
     18 C         142.2873  143.1822  165.2411 C.ar    1  UNL1        0.0178
     19 C         142.2099  144.0275  164.0044 C.ar    1  UNL1        0.0382
     20 C         141.6416  144.4387  160.6824 C.3     1  UNL1        0.2525
     21 O         142.8776  144.4639  161.5319 O.3     1  UNL1       -0.4714
     22 N         138.3222  139.2630  166.3412 N.pl3   1  UNL1       -0.3031
     23 H         137.4832  139.0381  166.8045 H       1  UNL1        0.1496
     24 C         138.4247  139.0991  164.8537 C.3     1  UNL1        0.0908
     25 C         138.9477  137.8181  164.2745 C.3     1  UNL1        0.0531
     26 C         139.0502  137.6542  162.7870 C.3     1  UNL1        0.1440
     27 O         138.6296  138.7714  161.8787 O.3     1  UNL1       -0.3522
     28 C         138.1066  140.0524  162.4578 C.3     1  UNL1        0.1592
     29 C         138.0041  140.2163  163.9453 C.3     1  UNL1        0.0990
     30 N         137.4811  141.4972  164.5245 N.3     1  UNL1       -0.3189
     31 H         137.4803  141.4347  165.5426 H       1  UNL1        0.1189
     32 H         136.5298  141.6569  164.1929 H       1  UNL1        0.1189
@<TRIPOS>BOND
     1    20    21    1
     2    21    14    1
     3    14    15   ar
     4    15    16   ar
     5    16    17   ar
     6    17    12    1
     7    12     1    1
     8     1     2   ar
     9     2     3   ar
    10     3    22    1
    11    24    22    1
    12    24    25    1
    13    25    26    1
    14    26    27    1
    15    27    28    1
    16    28    29    1
    17    29    30    1
    18     3     4   ar
    19     4     5   ar
    20     5     6   ar
    21     6     7    1
    22     7     8   am
    23     7     9    2
    24    17    18   ar
    25    18    19   ar
    26    19    14   ar
    27     6     1   ar
    28    29    24    1
    29    12    13    1
    30    22    23    1
    31    30    31    1
    32    30    32    1
    33     8    10    1
    34     8    11    1
@<TRIPOS>MOLECULE
*****
 32 34 0 0 0
SMALL
GASTEIGER

@<TRIPOS>ATOM
      1 C         141.1652  141.2619  168.1549 C.ar    1  UNL1        0.1409
      2 N         140.2413  140.6864  167.1228 N.ar    1  UNL1       -0.1986
      3 C         139.0654  139.8577  167.5475 C.ar    1  UNL1        0.2181
      4 N         138.8134  139.6043  169.0043 N.ar    1  UNL1       -0.2120
      5 C         139.7373  140.1797  170.0364 C.ar    1  UNL1        0.1091
      6 C         140.9132  141.0085  169.6117 C.ar    1  UNL1        0.1040
      7 C         141.8371  141.5840  170.6439 C.2     1  UNL1        0.2470
      8 N         142.5421  140.6770  171.6084 N.am    1  UNL1       -0.3252
      9 O         142.0560  143.0663  170.7114 O.2     1  UNL1       -0.2702
     10 H         142.3984  139.7041  171.5641 H       1  UNL1        0.1453
     11 H         143.1485  141.0547  172.2859 H       1  UNL1        0.1453
     12 N         142.3411  142.0907  167.7302 N.pl3   1  UNL1       -0.2977
     13 H         142.6448  142.8391  168.2931 H       1  UNL1        0.1536
     14 C         144.4805  141.1561  163.8832 C.ar    1  UNL1        0.1388
     15 C         144.4448  142.5644  164.3986 C.ar    1  UNL1        0.0382
     16 C         143.7316  142.8759  165.6809 C.ar    1  UNL1        0.0178
     17 C         143.0542  141.7792  166.4479 C.ar    1  UNL1        0.0496
     18 C         143.0900  140.3710  165.9326 C.ar    1  UNL1        0.0178
     19 C         143.8031  140.0595  164.6502 C.ar    1  UNL1        0.0382
     20 C         144.4369  140.2624  161.4441 C.3     1  UNL1        0.2525
     21 O         145.1937  140.8446  162.6009 O.3     1  UNL1       -0.4714
     22 N         138.1414  139.2822  166.5154 N.pl3   1  UNL1       -0.3031
     23 H         137.2079  139.0762  166.7505 H       1  UNL1        0.1496
     24 C         138.6399  139.0206  165.1250 C.3     1  UNL1        0.0908
     25 C         139.4982  137.8217  164.8491 C.3     1  UNL1        0.0531
     26 C         139.9967  137.5602  163.4587 C.3     1  UNL1        0.1440
     27 O         139.6368  138.4975  162.3443 O.3     1  UNL1       -0.3522
     28 C         138.7786  139.6964  162.6202 C.3     1  UNL1        0.1592
     29 C         138.2801  139.9579  164.0106 C.3     1  UNL1        0.0990
     30 N         137.4219  141.1567  164.2865 N.3     1  UNL1       -0.3189
     31 H         137.1760  141.1783  165.2762 H       1  UNL1        0.1189
     32 H         136.5714  141.1023  163.7260 H       1  UNL1        0.1189
@<TRIPOS>BOND
     1    20    21    1
     2    21    14    1
     3    14    15   ar
     4    15    16   ar
     5    16    17   ar
     6    17    12    1
     7    12     1    1
     8     1     2   ar
     9     2     3   ar
    10     3    22    1
    11    24    22    1
    12    24    25    1
    13    25    26    1
    14    26    27    1
    15    27    28    1
    16    28    29    1
    17    29    30    1
    18     3     4   ar
    19     4     5   ar
    20     5     6   ar
    21     6     7    1
    22     7     8   am
    23     7     9    2
    24    17    18   ar
    25    18    19   ar
    26    19    14   ar
    27     6     1   ar
    28    29    24    1
    29    12    13    1
    30    22    23    1
    31    30    31    1
    32    30    32    1
    33     8    10    1
    34     8    11    1
@<TRIPOS>MOLECULE
*****
 32 34 0 0 0
SMALL
GASTEIGER

@<TRIPOS>ATOM
      1 C         140.5555  139.7036  166.8050 C.ar    1  UNL1        0.1409
      2 N         140.3767  138.9077  165.5461 N.ar    1  UNL1       -0.1986
      3 C         139.0697  138.2258  165.2692 C.ar    1  UNL1        0.2181
      4 N         137.9415  138.3398  166.2510 N.ar    1  UNL1       -0.2120
      5 C         138.1202  139.1357  167.5098 C.ar    1  UNL1        0.1091
      6 C         139.4273  139.8176  167.7868 C.ar    1  UNL1        0.1040
      7 C         139.6060  140.6135  169.0456 C.2     1  UNL1        0.2470
      8 N         139.1584  140.0476  170.3607 N.am    1  UNL1       -0.3252
      9 O         140.2324  141.9753  168.9893 O.2     1  UNL1       -0.2702
     10 H         138.7473  139.1539  170.3976 H       1  UNL1        0.1453
     11 H         139.2757  140.5700  171.1868 H       1  UNL1        0.1453
     12 N         141.8625  140.3855  167.0819 N.pl3   1  UNL1       -0.2977
     13 H         142.2546  140.3503  167.9842 H       1  UNL1        0.1536
     14 C         143.9915  142.5921  163.7881 C.ar    1  UNL1        0.1388
     15 C         142.9346  143.2864  164.5948 C.ar    1  UNL1        0.0382
     16 C         142.2249  142.5509  165.6928 C.ar    1  UNL1        0.0178
     17 C         142.5722  141.1211  165.9840 C.ar    1  UNL1        0.0496
     18 C         143.6291  140.4267  165.1773 C.ar    1  UNL1        0.0178
     19 C         144.3387  141.1622  164.0793 C.ar    1  UNL1        0.0382
     20 C         144.7003  142.7759  161.2954 C.3     1  UNL1        0.2525
     21 O         144.7011  143.3276  162.6902 O.3     1  UNL1       -0.4714
     22 N         138.8909  137.4299  164.0104 N.pl3   1  UNL1       -0.3031
     23 H         138.6835  136.4688  164.0609 H       1  UNL1        0.1496
     24 C         139.0283  138.0983  162.6746 C.3     1  UNL1        0.0908
     25 C         137.9043  138.9315  162.1337 C.3     1  UNL1        0.0531
     26 C         138.0416  139.5999  160.7979 C.3     1  UNL1        0.1440
     27 O         139.3029  139.4351  160.0029 O.3     1  UNL1       -0.3522
     28 C         140.4268  138.6019  160.5438 C.3     1  UNL1        0.1592
     29 C         140.2895  137.9335  161.8796 C.3     1  UNL1        0.0990
     30 N         141.4134  137.1002  162.4204 N.3     1  UNL1       -0.3189
     31 H         141.1505  136.7250  163.3317 H       1  UNL1        0.1189
     32 H         142.2483  137.6780  162.5186 H       1  UNL1        0.1189
@<TRIPOS>BOND
     1    20    21    1
     2    21    14    1
     3    14    15   ar
     4    15    16   ar
     5    16    17   ar
     6    17    12    1
     7    12     1    1
     8     1     2   ar
     9     2     3   ar
    10     3    22    1
    11    24    22    1
    12    24    25    1
    13    25    26    1
    14    26    27    1
    15    27    28    1
    16    28    29    1
    17    29    30    1
    18     3     4   ar
    19     4     5   ar
    20     5     6   ar
    21     6     7    1
    22     7     8   am
    23     7     9    2
    24    17    18   ar
    25    18    19   ar
    26    19    14   ar
    27     6     1   ar
    28    29    24    1
    29    12    13    1
    30    22    23    1
    31    30    31    1
    32    30    32    1
    33     8    10    1
    34     8    11    1
@<TRIPOS>MOLECULE
*****
 32 34 0 0 0
SMALL
GASTEIGER

@<TRIPOS>ATOM
      1 C         141.7681  140.4703  167.3770 C.ar    1  UNL1        0.1409
      2 N         141.3915  141.4831  166.3365 N.ar    1  UNL1       -0.1986
      3 C         140.5841  142.6877  166.7201 C.ar    1  UNL1        0.2181
      4 N         140.1533  142.8794  168.1440 N.ar    1  UNL1       -0.2120
      5 C         140.5298  141.8667  169.1844 C.ar    1  UNL1        0.1091
      6 C         141.3372  140.6620  168.8009 C.ar    1  UNL1        0.1040
      7 C         141.7138  139.6493  169.8413 C.2     1  UNL1        0.2470
      8 N         140.7034  139.2071  170.8579 N.am    1  UNL1       -0.3252
      9 O         143.1008  139.0786  169.8650 O.2     1  UNL1       -0.2702
     10 H         139.7930  139.5817  170.8423 H       1  UNL1        0.1453
     11 H         140.9505  138.5424  171.5408 H       1  UNL1        0.1453
     12 N         142.5755  139.2657  166.9934 N.pl3   1  UNL1       -0.2977
     13 H         142.9299  138.6682  167.6910 H       1  UNL1        0.1536
     14 C         143.3778  138.3833  162.6543 C.ar    1  UNL1        0.1388
     15 C         144.3742  139.1657  163.4573 C.ar    1  UNL1        0.0382
     16 C         144.1068  139.4599  164.9036 C.ar    1  UNL1        0.0178
     17 C         142.8429  138.9716  165.5470 C.ar    1  UNL1        0.0496
     18 C         141.8464  138.1891  164.7441 C.ar    1  UNL1        0.0178
     19 C         142.1139  137.8950  163.2978 C.ar    1  UNL1        0.0382
     20 C         143.7754  139.2148  160.2253 C.3     1  UNL1        0.2525
     21 O         143.6452  138.0891  161.2080 O.3     1  UNL1       -0.4714
     22 N         140.2075  143.7005  165.6797 N.pl3   1  UNL1       -0.3031
     23 H         140.5786  144.6114  165.7224 H       1  UNL1        0.1496
     24 C         139.2655  143.3255  164.5742 C.3     1  UNL1        0.0908
     25 C         138.4565  142.0662  164.6732 C.3     1  UNL1        0.0531
     26 C         137.5144  141.6912  163.5678 C.3     1  UNL1        0.1440
     27 O         137.3815  142.5754  162.3634 O.3     1  UNL1       -0.3522
     28 C         138.1905  143.8346  162.2645 C.3     1  UNL1        0.1592
     29 C         139.1325  144.2097  163.3699 C.3     1  UNL1        0.0990
     30 N         139.9415  145.4689  163.2710 N.3     1  UNL1       -0.3189
     31 H         140.5228  145.5658  164.1035 H       1  UNL1        0.1189
     32 H         139.3152  146.2706  163.1984 H       1  UNL1        0.1189
@<TRIPOS>BOND
     1    20    21    1
     2    21    14    1
     3    14    15   ar
     4    15    16   ar
     5    16    17   ar
     6    17    12    1
     7    12     1    1
     8     1     2   ar
     9     2     3   ar
    10     3    22    1
    11    24    22    1
    12    24    25    1
    13    25    26    1
    14    26    27    1
    15    27    28    1
    16    28    29    1
    17    29    30    1
    18     3     4   ar
    19     4     5   ar
    20     5     6   ar
    21     6     7    1
    22     7     8   am
    23     7     9    2
    24    17    18   ar
    25    18    19   ar
    26    19    14   ar
    27     6     1   ar
    28    29    24    1
    29    12    13    1
    30    22    23    1
    31    30    31    1
    32    30    32    1
    33     8    10    1
    34     8    11    1
