@<TRIPOS>MOLECULE
*****
 28 31 0 0 0
SMALL
GASTEIGER

@<TRIPOS>ATOM
      1 C         143.9242  137.8953  160.9245 C.3     1  UNL1        0.0992
      2 C         142.6299  137.8106  158.6733 C.3     1  UNL1        0.0902
      3 N         143.4272  138.5789  159.6852 N.3     1  UNL1       -0.2639
      4 C         143.7276  140.0308  159.4578 C.3     1  UNL1        0.0995
      5 C         143.1688  141.0669  160.3876 C.ar    1  UNL1       -0.0031
      6 C         141.7182  141.0296  160.7673 C.ar    1  UNL1       -0.0030
      7 C         141.1594  142.0656  161.6970 C.ar    1  UNL1       -0.0016
      8 C         142.0512  143.1390  162.2470 C.ar    1  UNL1        0.0119
      9 C         143.5019  143.1763  161.8673 C.ar    1  UNL1        0.1342
     10 C         144.0607  142.1402  160.9375 C.ar    1  UNL1        0.0337
     11 O         144.3938  144.2497  162.4172 O.3     1  UNL1       -0.4758
     12 C         143.8350  145.2857  163.3469 C.3     1  UNL1        0.2057
     13 C         142.3843  145.2483  163.7267 C.3     1  UNL1        0.0521
     14 C         141.4924  144.1750  163.1767 C.3     1  UNL1        0.0333
     15 C         143.4073  138.3121  162.2695 C.2     1  UNL1       -0.0088
     16 C         144.2544  139.1643  163.1674 C.2     1  UNL1       -0.0032
     17 C         143.7374  139.5811  164.5124 C.ar    1  UNL1       -0.0003
     18 C         143.4910  141.0316  164.8046 C.ar    1  UNL1       -0.0000
     19 C         142.9741  141.4484  166.1496 C.ar    1  UNL1       -0.0000
     20 C         142.7035  140.4148  167.2024 C.ar    1  UNL1       -0.0000
     21 C         142.9499  138.9643  166.9101 C.ar    1  UNL1       -0.0000
     22 C         143.4668  138.5474  165.5652 C.ar    1  UNL1       -0.0000
     23 C         142.1866  140.8316  168.5474 C.ar    1  UNL1        0.0000
     24 C         141.1825  139.9771  169.2627 C.ar    1  UNL1        0.0000
     25 C         140.6655  140.3938  170.6077 C.ar    1  UNL1        0.0000
     26 C         141.1526  141.6651  171.2374 C.ar    1  UNL1        0.0000
     27 C         142.1567  142.5196  170.5222 C.ar    1  UNL1        0.0000
     28 C         142.6737  142.1028  169.1771 C.ar    1  UNL1        0.0000
@<TRIPOS>BOND
     1     2     3    1
     2     3     1    1
     3     1    15    1
     4    15    16    2
     5    16    17    1
     6    17    18   ar
     7    18    19   ar
     8    19    20   ar
     9    20    23    1
    10    23    24   ar
    11    24    25   ar
    12    25    26   ar
    13    26    27   ar
    14    27    28   ar
    15    20    21   ar
    16    21    22   ar
    17     3     4    1
    18     4     5    1
    19     5     6   ar
    20     6     7   ar
    21     7     8   ar
    22     8     9   ar
    23     9    10   ar
    24     9    11    1
    25    11    12    1
    26    12    13    1
    27    13    14    1
    28    22    17   ar
    29    10     5   ar
    30    28    23   ar
    31    14     8    1
@<TRIPOS>MOLECULE
*****
 28 31 0 0 0
SMALL
GASTEIGER

@<TRIPOS>ATOM
      1 C         144.1009  138.3251  160.9208 C.3     1  UNL1        0.0992
      2 C         142.6747  138.3992  158.7505 C.3     1  UNL1        0.0902
      3 N         143.6072  139.0692  159.7156 N.3     1  UNL1       -0.2639
      4 C         144.0461  140.4832  159.4754 C.3     1  UNL1        0.0995
      5 C         143.7105  141.5524  160.4726 C.ar    1  UNL1       -0.0031
      6 C         144.7985  142.4104  161.0470 C.ar    1  UNL1       -0.0030
      7 C         144.4630  143.4795  162.0442 C.ar    1  UNL1       -0.0016
      8 C         143.0393  143.6906  162.4670 C.ar    1  UNL1        0.0119
      9 C         141.9513  142.8326  161.8926 C.ar    1  UNL1        0.1342
     10 C         142.2869  141.7634  160.8954 C.ar    1  UNL1        0.0337
     11 O         140.5277  143.0436  162.3153 O.3     1  UNL1       -0.4758
     12 C         140.1921  144.1127  163.3125 C.3     1  UNL1        0.2057
     13 C         141.2802  144.9708  163.8869 C.3     1  UNL1        0.0521
     14 C         142.7038  144.7597  163.4642 C.3     1  UNL1        0.0333
     15 C         143.5429  138.6398  162.2771 C.2     1  UNL1       -0.0088
     16 C         144.3272  139.4899  163.2320 C.2     1  UNL1       -0.0032
     17 C         143.7691  139.8046  164.5884 C.ar    1  UNL1       -0.0003
     18 C         143.4754  141.2259  164.9672 C.ar    1  UNL1       -0.0000
     19 C         142.9173  141.5406  166.3235 C.ar    1  UNL1       -0.0000
     20 C         142.6529  140.4340  167.3009 C.ar    1  UNL1       -0.0000
     21 C         142.9466  139.0126  166.9220 C.ar    1  UNL1       -0.0000
     22 C         143.5047  138.6979  165.5658 C.ar    1  UNL1       -0.0000
     23 C         142.0948  140.7487  168.6572 C.ar    1  UNL1        0.0000
     24 C         140.9648  139.9323  169.2110 C.ar    1  UNL1        0.0000
     25 C         140.4067  140.2469  170.5673 C.ar    1  UNL1        0.0000
     26 C         140.9785  141.3779  171.3698 C.ar    1  UNL1        0.0000
     27 C         142.1085  142.1943  170.8159 C.ar    1  UNL1        0.0000
     28 C         142.6666  141.8796  169.4596 C.ar    1  UNL1        0.0000
@<TRIPOS>BOND
     1     2     3    1
     2     3     1    1
     3     1    15    1
     4    15    16    2
     5    16    17    1
     6    17    18   ar
     7    18    19   ar
     8    19    20   ar
     9    20    23    1
    10    23    24   ar
    11    24    25   ar
    12    25    26   ar
    13    26    27   ar
    14    27    28   ar
    15    20    21   ar
    16    21    22   ar
    17     3     4    1
    18     4     5    1
    19     5     6   ar
    20     6     7   ar
    21     7     8   ar
    22     8     9   ar
    23     9    10   ar
    24     9    11    1
    25    11    12    1
    26    12    13    1
    27    13    14    1
    28    22    17   ar
    29    10     5   ar
    30    28    23   ar
    31    14     8    1
@<TRIPOS>MOLECULE
*****
 28 31 0 0 0
SMALL
GASTEIGER

@<TRIPOS>ATOM
      1 C         139.5534  138.3550  159.7444 C.3     1  UNL1        0.0992
      2 C         140.1116  139.4372  157.4494 C.3     1  UNL1        0.0902
      3 N         140.5546  138.7147  158.6869 N.3     1  UNL1       -0.2639
      4 C         141.9988  138.3517  158.8670 C.3     1  UNL1        0.0995
      5 C         142.7590  138.8657  160.0536 C.ar    1  UNL1       -0.0031
      6 C         143.2416  137.9117  161.1058 C.ar    1  UNL1       -0.0030
      7 C         144.0017  138.4256  162.2924 C.ar    1  UNL1       -0.0016
      8 C         144.2794  139.8936  162.4269 C.ar    1  UNL1        0.0119
      9 C         143.7968  140.8476  161.3747 C.ar    1  UNL1        0.1342
     10 C         143.0366  140.3336  160.1881 C.ar    1  UNL1        0.0337
     11 O         144.0744  142.3155  161.5092 O.3     1  UNL1       -0.4758
     12 C         144.8346  142.8294  162.6958 C.3     1  UNL1        0.2057
     13 C         145.3171  141.8754  163.7479 C.3     1  UNL1        0.0521
     14 C         145.0395  140.4075  163.6134 C.3     1  UNL1        0.0333
     15 C         139.5885  139.0446  161.0760 C.2     1  UNL1       -0.0088
     16 C         139.7952  138.2462  162.3289 C.2     1  UNL1       -0.0032
     17 C         139.8302  138.9359  163.6605 C.ar    1  UNL1       -0.0003
     18 C         140.9088  139.9345  163.9598 C.ar    1  UNL1       -0.0000
     19 C         140.9438  140.6241  165.2913 C.ar    1  UNL1       -0.0000
     20 C         139.9004  140.3152  166.3236 C.ar    1  UNL1       -0.0000
     21 C         138.8218  139.3166  166.0244 C.ar    1  UNL1       -0.0000
     22 C         138.7868  138.6269  164.6929 C.ar    1  UNL1       -0.0000
     23 C         139.9354  141.0049  167.6553 C.ar    1  UNL1        0.0000
     24 C         140.5048  142.3880  167.7688 C.ar    1  UNL1        0.0000
     25 C         140.5399  143.0777  169.1003 C.ar    1  UNL1        0.0000
     26 C         140.0055  142.3843  170.3185 C.ar    1  UNL1        0.0000
     27 C         139.4362  141.0012  170.2050 C.ar    1  UNL1        0.0000
     28 C         139.4011  140.3115  168.8733 C.ar    1  UNL1        0.0000
@<TRIPOS>BOND
     1     2     3    1
     2     3     1    1
     3     1    15    1
     4    15    16    2
     5    16    17    1
     6    17    18   ar
     7    18    19   ar
     8    19    20   ar
     9    20    23    1
    10    23    24   ar
    11    24    25   ar
    12    25    26   ar
    13    26    27   ar
    14    27    28   ar
    15    20    21   ar
    16    21    22   ar
    17     3     4    1
    18     4     5    1
    19     5     6   ar
    20     6     7   ar
    21     7     8   ar
    22     8     9   ar
    23     9    10   ar
    24     9    11    1
    25    11    12    1
    26    12    13    1
    27    13    14    1
    28    22    17   ar
    29    10     5   ar
    30    28    23   ar
    31    14     8    1
@<TRIPOS>MOLECULE
*****
 28 31 0 0 0
SMALL
GASTEIGER

@<TRIPOS>ATOM
      1 C         138.0223  140.1173  160.7983 C.3     1  UNL1        0.0992
      2 C         139.0342  140.3868  158.4206 C.3     1  UNL1        0.0902
      3 N         138.5105  140.9979  159.6864 N.3     1  UNL1       -0.2639
      4 C         138.4751  142.4895  159.8403 C.3     1  UNL1        0.0995
      5 C         139.3660  143.1615  160.8428 C.ar    1  UNL1       -0.0031
      6 C         138.7675  143.9808  161.9476 C.ar    1  UNL1       -0.0030
      7 C         139.6583  144.6528  162.9501 C.ar    1  UNL1       -0.0016
      8 C         141.1476  144.5053  162.8478 C.ar    1  UNL1        0.0119
      9 C         141.7460  143.6860  161.7431 C.ar    1  UNL1        0.1342
     10 C         140.8551  143.0140  160.7405 C.ar    1  UNL1        0.0337
     11 O         143.2352  143.5385  161.6408 O.3     1  UNL1       -0.4758
     12 C         144.1259  144.2105  162.6433 C.3     1  UNL1        0.2057
     13 C         143.5275  145.0298  163.7480 C.3     1  UNL1        0.0521
     14 C         142.0383  145.1773  163.8503 C.3     1  UNL1        0.0333
     15 C         138.6849  140.1704  162.1430 C.2     1  UNL1       -0.0088
     16 C         137.9100  140.6272  163.3434 C.2     1  UNL1       -0.0032
     17 C         138.5726  140.6802  164.6881 C.ar    1  UNL1       -0.0003
     18 C         138.3618  139.5681  165.6725 C.ar    1  UNL1       -0.0000
     19 C         139.0243  139.6211  167.0171 C.ar    1  UNL1       -0.0000
     20 C         139.8977  140.7861  167.3775 C.ar    1  UNL1       -0.0000
     21 C         140.1085  141.8982  166.3931 C.ar    1  UNL1       -0.0000
     22 C         139.4460  141.8452  165.0485 C.ar    1  UNL1       -0.0000
     23 C         140.5603  140.8391  168.7222 C.ar    1  UNL1        0.0000
     24 C         140.0491  141.7790  169.7736 C.ar    1  UNL1        0.0000
     25 C         140.7117  141.8320  171.1183 C.ar    1  UNL1        0.0000
     26 C         141.8854  140.9452  171.4116 C.ar    1  UNL1        0.0000
     27 C         142.3966  140.0054  170.3602 C.ar    1  UNL1        0.0000
     28 C         141.7340  139.9524  169.0154 C.ar    1  UNL1        0.0000
@<TRIPOS>BOND
     1     2     3    1
     2     3     1    1
     3     1    15    1
     4    15    16    2
     5    16    17    1
     6    17    18   ar
     7    18    19   ar
     8    19    20   ar
     9    20    23    1
    10    23    24   ar
    11    24    25   ar
    12    25    26   ar
    13    26    27   ar
    14    27    28   ar
    15    20    21   ar
    16    21    22   ar
    17     3     4    1
    18     4     5    1
    19     5     6   ar
    20     6     7   ar
    21     7     8   ar
    22     8     9   ar
    23     9    10   ar
    24     9    11    1
    25    11    12    1
    26    12    13    1
    27    13    14    1
    28    22    17   ar
    29    10     5   ar
    30    28    23   ar
    31    14     8    1
@<TRIPOS>MOLECULE
*****
 28 31 0 0 0
SMALL
GASTEIGER

@<TRIPOS>ATOM
      1 C         140.7110  138.7898  159.3740 C.3     1  UNL1        0.0992
      2 C         140.1364  140.0608  157.1821 C.3     1  UNL1        0.0902
      3 N         139.7397  139.5773  158.5454 N.3     1  UNL1       -0.2639
      4 C         138.3716  139.8812  159.0802 C.3     1  UNL1        0.0995
      5 C         138.2201  140.6460  160.3617 C.ar    1  UNL1       -0.0031
      6 C         137.6417  139.9746  161.5719 C.ar    1  UNL1       -0.0030
      7 C         137.4902  140.7394  162.8533 C.ar    1  UNL1       -0.0016
      8 C         137.9170  142.1757  162.9246 C.ar    1  UNL1        0.0119
      9 C         138.4953  142.8471  161.7143 C.ar    1  UNL1        0.1342
     10 C         138.6469  142.0822  160.4329 C.ar    1  UNL1        0.0337
     11 O         138.9222  144.2833  161.7855 O.3     1  UNL1       -0.4758
     12 C         138.7706  145.0481  163.0669 C.3     1  UNL1        0.2057
     13 C         138.1922  144.3766  164.2772 C.3     1  UNL1        0.0521
     14 C         137.7654  142.9404  164.2060 C.3     1  UNL1        0.0333
     15 C         141.1187  139.2892  160.7284 C.2     1  UNL1       -0.0088
     16 C         140.8386  138.4623  161.9482 C.2     1  UNL1       -0.0032
     17 C         141.2463  138.9617  163.3026 C.ar    1  UNL1       -0.0003
     18 C         141.0461  140.4042  163.6616 C.ar    1  UNL1       -0.0000
     19 C         141.4538  140.9036  165.0160 C.ar    1  UNL1       -0.0000
     20 C         142.0617  139.9605  166.0113 C.ar    1  UNL1       -0.0000
     21 C         142.2620  138.5179  165.6523 C.ar    1  UNL1       -0.0000
     22 C         141.8543  138.0185  164.2980 C.ar    1  UNL1       -0.0000
     23 C         142.4695  140.4599  167.3658 C.ar    1  UNL1        0.0000
     24 C         142.8820  141.8909  167.5445 C.ar    1  UNL1        0.0000
     25 C         143.2898  142.3903  168.8989 C.ar    1  UNL1        0.0000
     26 C         143.2849  141.4587  170.0746 C.ar    1  UNL1        0.0000
     27 C         142.8724  140.0276  169.8958 C.ar    1  UNL1        0.0000
     28 C         142.4646  139.5283  168.5413 C.ar    1  UNL1        0.0000
@<TRIPOS>BOND
     1     2     3    1
     2     3     1    1
     3     1    15    1
     4    15    16    2
     5    16    17    1
     6    17    18   ar
     7    18    19   ar
     8    19    20   ar
     9    20    23    1
    10    23    24   ar
    11    24    25   ar
    12    25    26   ar
    13    26    27   ar
    14    27    28   ar
    15    20    21   ar
    16    21    22   ar
    17     3     4    1
    18     4     5    1
    19     5     6   ar
    20     6     7   ar
    21     7     8   ar
    22     8     9   ar
    23     9    10   ar
    24     9    11    1
    25    11    12    1
    26    12    13    1
    27    13    14    1
    28    22    17   ar
    29    10     5   ar
    30    28    23   ar
    31    14     8    1
@<TRIPOS>MOLECULE
*****
 28 31 0 0 0
SMALL
GASTEIGER

@<TRIPOS>ATOM
      1 C         137.8752  140.0328  160.5556 C.3     1  UNL1        0.0992
      2 C         138.8011  140.1941  158.1335 C.3     1  UNL1        0.0902
      3 N         138.8220  139.5599  159.4926 N.3     1  UNL1       -0.2639
      4 C         139.7897  138.4528  159.7887 C.3     1  UNL1        0.0995
      5 C         140.8460  138.6403  160.8372 C.ar    1  UNL1       -0.0031
      6 C         140.8786  137.7419  162.0380 C.ar    1  UNL1       -0.0030
      7 C         141.9348  137.9294  163.0864 C.ar    1  UNL1       -0.0016
      8 C         142.9584  139.0152  162.9341 C.ar    1  UNL1        0.0119
      9 C         142.9258  139.9136  161.7334 C.ar    1  UNL1        0.1342
     10 C         141.8696  139.7261  160.6849 C.ar    1  UNL1        0.0337
     11 O         143.9494  140.9994  161.5810 O.3     1  UNL1       -0.4758
     12 C         145.0055  141.1869  162.6295 C.3     1  UNL1        0.2057
     13 C         145.0381  140.2885  163.8303 C.3     1  UNL1        0.0521
     14 C         144.0146  139.2027  163.9826 C.3     1  UNL1        0.0333
     15 C         138.3990  140.4293  161.9040 C.2     1  UNL1       -0.0088
     16 C         138.0944  139.5841  163.1052 C.2     1  UNL1       -0.0032
     17 C         138.6183  139.9808  164.4537 C.ar    1  UNL1       -0.0003
     18 C         138.3568  139.1089  165.6460 C.ar    1  UNL1       -0.0000
     19 C         138.8806  139.5055  166.9944 C.ar    1  UNL1       -0.0000
     20 C         139.6658  140.7739  167.1506 C.ar    1  UNL1       -0.0000
     21 C         139.9273  141.6458  165.9583 C.ar    1  UNL1       -0.0000
     22 C         139.4035  141.2492  164.6098 C.ar    1  UNL1       -0.0000
     23 C         140.1897  141.1706  168.4990 C.ar    1  UNL1        0.0000
     24 C         140.7193  142.5565  168.7199 C.ar    1  UNL1        0.0000
     25 C         141.2431  142.9532  170.0683 C.ar    1  UNL1        0.0000
     26 C         141.2373  141.9639  171.1959 C.ar    1  UNL1        0.0000
     27 C         140.7077  140.5780  170.9751 C.ar    1  UNL1        0.0000
     28 C         140.1839  140.1814  169.6266 C.ar    1  UNL1        0.0000
@<TRIPOS>BOND
     1     2     3    1
     2     3     1    1
     3     1    15    1
     4    15    16    2
     5    16    17    1
     6    17    18   ar
     7    18    19   ar
     8    19    20   ar
     9    20    23    1
    10    23    24   ar
    11    24    25   ar
    12    25    26   ar
    13    26    27   ar
    14    27    28   ar
    15    20    21   ar
    16    21    22   ar
    17     3     4    1
    18     4     5    1
    19     5     6   ar
    20     6     7   ar
    21     7     8   ar
    22     8     9   ar
    23     9    10   ar
    24     9    11    1
    25    11    12    1
    26    12    13    1
    27    13    14    1
    28    22    17   ar
    29    10     5   ar
    30    28    23   ar
    31    14     8    1
@<TRIPOS>MOLECULE
*****
 28 31 0 0 0
SMALL
GASTEIGER

@<TRIPOS>ATOM
      1 C         143.7103  138.8418  160.4062 C.3     1  UNL1        0.0992
      2 C         143.0445  139.0590  157.9043 C.3     1  UNL1        0.0902
      3 N         142.6744  138.7518  159.3251 N.3     1  UNL1       -0.2639
      4 C         141.2684  138.3547  159.6647 C.3     1  UNL1        0.0995
      5 C         140.6154  138.8927  160.9034 C.ar    1  UNL1       -0.0031
      6 C         140.3621  140.3650  161.0386 C.ar    1  UNL1       -0.0030
      7 C         139.7093  140.9031  162.2772 C.ar    1  UNL1       -0.0016
      8 C         139.3096  139.9688  163.3807 C.ar    1  UNL1        0.0119
      9 C         139.5629  138.4966  163.2455 C.ar    1  UNL1        0.1342
     10 C         140.2159  137.9585  162.0068 C.ar    1  UNL1        0.0337
     11 O         139.1634  137.5624  164.3489 O.3     1  UNL1       -0.4758
     12 C         138.5105  138.1004  165.5875 C.3     1  UNL1        0.2057
     13 C         138.2572  139.5727  165.7227 C.3     1  UNL1        0.0521
     14 C         138.6567  140.5069  164.6193 C.3     1  UNL1        0.0333
     15 C         143.4245  139.6207  161.6558 C.2     1  UNL1       -0.0088
     16 C         143.2895  138.9086  162.9691 C.2     1  UNL1       -0.0032
     17 C         143.0037  139.6876  164.2188 C.ar    1  UNL1       -0.0003
     18 C         142.4577  138.9898  165.4291 C.ar    1  UNL1       -0.0000
     19 C         142.1719  139.7687  166.6787 C.ar    1  UNL1       -0.0000
     20 C         142.4321  141.2454  166.7180 C.ar    1  UNL1       -0.0000
     21 C         142.9782  141.9432  165.5077 C.ar    1  UNL1       -0.0000
     22 C         143.2640  141.1643  164.2580 C.ar    1  UNL1       -0.0000
     23 C         142.1463  142.0244  167.9677 C.ar    1  UNL1        0.0000
     24 C         140.8035  142.6640  168.1621 C.ar    1  UNL1        0.0000
     25 C         140.5177  143.4429  169.4117 C.ar    1  UNL1        0.0000
     26 C         141.5747  143.5823  170.4669 C.ar    1  UNL1        0.0000
     27 C         142.9175  142.9427  170.2724 C.ar    1  UNL1        0.0000
     28 C         143.2033  142.1637  169.0228 C.ar    1  UNL1        0.0000
@<TRIPOS>BOND
     1     2     3    1
     2     3     1    1
     3     1    15    1
     4    15    16    2
     5    16    17    1
     6    17    18   ar
     7    18    19   ar
     8    19    20   ar
     9    20    23    1
    10    23    24   ar
    11    24    25   ar
    12    25    26   ar
    13    26    27   ar
    14    27    28   ar
    15    20    21   ar
    16    21    22   ar
    17     3     4    1
    18     4     5    1
    19     5     6   ar
    20     6     7   ar
    21     7     8   ar
    22     8     9   ar
    23     9    10   ar
    24     9    11    1
    25    11    12    1
    26    12    13    1
    27    13    14    1
    28    22    17   ar
    29    10     5   ar
    30    28    23   ar
    31    14     8    1
@<TRIPOS>MOLECULE
*****
 28 31 0 0 0
SMALL
GASTEIGER

@<TRIPOS>ATOM
      1 C         143.6117  138.0275  161.2192 C.3     1  UNL1        0.0992
      2 C         142.6657  137.8700  158.8046 C.3     1  UNL1        0.0902
      3 N         143.4257  138.6237  159.8554 N.3     1  UNL1       -0.2639
      4 C         143.9996  139.9738  159.5424 C.3     1  UNL1        0.0995
      5 C         143.6896  141.1442  160.4280 C.ar    1  UNL1       -0.0031
      6 C         144.7744  141.7653  161.2572 C.ar    1  UNL1       -0.0030
      7 C         144.4645  142.9356  162.1427 C.ar    1  UNL1       -0.0016
      8 C         143.0697  143.4850  162.1990 C.ar    1  UNL1        0.0119
      9 C         141.9850  142.8639  161.3698 C.ar    1  UNL1        0.1342
     10 C         142.2950  141.6935  160.4842 C.ar    1  UNL1        0.0337
     11 O         140.5904  143.4132  161.4261 O.3     1  UNL1       -0.4758
     12 C         140.2805  144.5835  162.3115 C.3     1  UNL1        0.2057
     13 C         141.3652  145.2046  163.1408 C.3     1  UNL1        0.0521
     14 C         142.7598  144.6553  163.0845 C.3     1  UNL1        0.0333
     15 C         142.9281  138.6404  162.4053 C.2     1  UNL1       -0.0088
     16 C         143.7364  139.0990  163.5827 C.2     1  UNL1       -0.0032
     17 C         143.0527  139.7119  164.7689 C.ar    1  UNL1       -0.0003
     18 C         143.1023  139.0244  166.1011 C.ar    1  UNL1       -0.0000
     19 C         142.4186  139.6373  167.2873 C.ar    1  UNL1       -0.0000
     20 C         141.6854  140.9376  167.1412 C.ar    1  UNL1       -0.0000
     21 C         141.6358  141.6251  165.8089 C.ar    1  UNL1       -0.0000
     22 C         142.3195  141.0123  164.6228 C.ar    1  UNL1       -0.0000
     23 C         141.0017  141.5505  168.3273 C.ar    1  UNL1        0.0000
     24 C         141.2961  142.9702  168.7119 C.ar    1  UNL1        0.0000
     25 C         140.6124  143.5831  169.8980 C.ar    1  UNL1        0.0000
     26 C         139.6343  142.7764  170.6996 C.ar    1  UNL1        0.0000
     27 C         139.3398  141.3567  170.3150 C.ar    1  UNL1        0.0000
     28 C         140.0236  140.7438  169.1289 C.ar    1  UNL1        0.0000
@<TRIPOS>BOND
     1     2     3    1
     2     3     1    1
     3     1    15    1
     4    15    16    2
     5    16    17    1
     6    17    18   ar
     7    18    19   ar
     8    19    20   ar
     9    20    23    1
    10    23    24   ar
    11    24    25   ar
    12    25    26   ar
    13    26    27   ar
    14    27    28   ar
    15    20    21   ar
    16    21    22   ar
    17     3     4    1
    18     4     5    1
    19     5     6   ar
    20     6     7   ar
    21     7     8   ar
    22     8     9   ar
    23     9    10   ar
    24     9    11    1
    25    11    12    1
    26    12    13    1
    27    13    14    1
    28    22    17   ar
    29    10     5   ar
    30    28    23   ar
    31    14     8    1
@<TRIPOS>MOLECULE
*****
 28 31 0 0 0
SMALL
GASTEIGER

@<TRIPOS>ATOM
      1 C         144.8469  142.5560  160.1700 C.3     1  UNL1        0.0992
      2 C         143.5250  142.9773  157.9734 C.3     1  UNL1        0.0902
      3 N         144.0724  142.0289  158.9985 N.3     1  UNL1       -0.2639
      4 C         143.8451  140.5535  158.8523 C.3     1  UNL1        0.0995
      5 C         143.2351  139.7732  159.9789 C.ar    1  UNL1       -0.0031
      6 C         144.0693  138.7947  160.7514 C.ar    1  UNL1       -0.0030
      7 C         143.4594  138.0145  161.8779 C.ar    1  UNL1       -0.0016
      8 C         142.0152  138.2127  162.2320 C.ar    1  UNL1        0.0119
      9 C         141.1811  139.1912  161.4595 C.ar    1  UNL1        0.1342
     10 C         141.7911  139.9715  160.3329 C.ar    1  UNL1        0.0337
     11 O         139.7371  139.3895  161.8136 O.3     1  UNL1       -0.4758
     12 C         139.1272  138.6092  162.9402 C.3     1  UNL1        0.2057
     13 C         139.9613  137.6307  163.7127 C.3     1  UNL1        0.0521
     14 C         141.4053  137.4325  163.3586 C.3     1  UNL1        0.0333
     15 C         144.2090  142.6133  161.5263 C.2     1  UNL1       -0.0088
     16 C         144.8021  141.8411  162.6673 C.2     1  UNL1       -0.0032
     17 C         144.1642  141.8984  164.0237 C.ar    1  UNL1       -0.0003
     18 C         143.1513  140.8656  164.4204 C.ar    1  UNL1       -0.0000
     19 C         142.5134  140.9229  165.7768 C.ar    1  UNL1       -0.0000
     20 C         142.8882  142.0131  166.7364 C.ar    1  UNL1       -0.0000
     21 C         143.9011  143.0459  166.3397 C.ar    1  UNL1       -0.0000
     22 C         144.5390  142.9886  164.9834 C.ar    1  UNL1       -0.0000
     23 C         142.2503  142.0704  168.0928 C.ar    1  UNL1        0.0000
     24 C         142.9841  141.5423  169.2897 C.ar    1  UNL1        0.0000
     25 C         142.3462  141.5996  170.6461 C.ar    1  UNL1        0.0000
     26 C         140.9744  142.1851  170.8056 C.ar    1  UNL1        0.0000
     27 C         140.2406  142.7133  169.6087 C.ar    1  UNL1        0.0000
     28 C         140.8785  142.6560  168.2523 C.ar    1  UNL1        0.0000
@<TRIPOS>BOND
     1     2     3    1
     2     3     1    1
     3     1    15    1
     4    15    16    2
     5    16    17    1
     6    17    18   ar
     7    18    19   ar
     8    19    20   ar
     9    20    23    1
    10    23    24   ar
    11    24    25   ar
    12    25    26   ar
    13    26    27   ar
    14    27    28   ar
    15    20    21   ar
    16    21    22   ar
    17     3     4    1
    18     4     5    1
    19     5     6   ar
    20     6     7   ar
    21     7     8   ar
    22     8     9   ar
    23     9    10   ar
    24     9    11    1
    25    11    12    1
    26    12    13    1
    27    13    14    1
    28    22    17   ar
    29    10     5   ar
    30    28    23   ar
    31    14     8    1
