@<TRIPOS>MOLECULE
*****
 42 47 0 0 0
SMALL
GASTEIGER

@<TRIPOS>ATOM
      1 C         138.6188  140.3627  162.2350 C.ar    1  UNL1       -0.0061
      2 C         138.2595  141.3707  163.2860 C.ar    1  UNL1       -0.0028
      3 C         138.1384  140.9483  164.7203 C.ar    1  UNL1        0.0030
      4 C         138.3767  139.5178  165.1034 C.ar    1  UNL1        0.0420
      5 C         138.7360  138.5097  164.0523 C.ar    1  UNL1        0.0030
      6 C         138.8571  138.9321  162.6182 C.ar    1  UNL1       -0.0028
      7 C         138.2556  139.0953  166.5376 C.2     1  UNL1        0.2297
      8 O         137.1258  138.2058  166.9645 O.2     1  UNL1       -0.2833
      9 C         139.2643  139.5623  167.5447 C.ar    1  UNL1        0.1873
     10 N         138.9978  139.8454  168.9935 N.ar    1  UNL1       -0.2235
     11 C         140.2854  140.2864  169.6241 C.ar    1  UNL1        0.0991
     12 C         140.6277  140.6961  171.0258 C.ar    1  UNL1        0.0206
     13 C         142.0324  141.0953  171.3686 C.ar    1  UNL1        0.0016
     14 C         143.0947  141.0847  170.3096 C.ar    1  UNL1        0.0016
     15 C         142.7523  140.6750  168.9079 C.ar    1  UNL1        0.0191
     16 C         141.3476  140.2758  168.5652 C.ar    1  UNL1        0.0830
     17 N         140.7166  139.8283  167.2800 N.ar    1  UNL1       -0.2877
     18 C         141.4152  139.6740  165.9617 C.ar    1  UNL1        0.0656
     19 C         141.6808  140.8783  165.1080 C.ar    1  UNL1        0.0199
     20 C         142.3794  140.7240  163.7897 C.ar    1  UNL1        0.0311
     21 C         142.8125  139.3651  163.3249 C.ar    1  UNL1        0.1402
     22 F         143.5111  139.2107  162.0065 F       1  UNL1       -0.2042
     23 C         142.5469  138.1606  164.1785 C.ar    1  UNL1        0.0311
     24 C         141.8482  138.3150  165.4969 C.ar    1  UNL1        0.0199
     25 C         138.7399  140.7851  160.8008 C.3     1  UNL1        0.0991
     26 C         141.5832  138.6350  158.0544 C.3     1  UNL1        0.0251
     27 C         142.1114  139.5975  159.0766 C.3     1  UNL1        0.0217
     28 C         141.1636  140.3142  159.9921 C.3     1  UNL1        0.0727
     29 N         139.6877  140.0684  159.8853 N.3     1  UNL1       -0.2689
     30 C         139.1596  139.1060  158.8631 C.3     1  UNL1        0.0727
     31 C         140.1074  138.3894  157.9477 C.3     1  UNL1        0.0217
     32 C         143.6835  135.7224  156.3646 C.ar    1  UNL1        0.0500
     33 C         144.4266  136.4850  155.3080 C.ar    1  UNL1        0.0147
     34 C         144.2219  137.9642  155.1669 C.ar    1  UNL1        0.0009
     35 C         143.2741  138.6809  156.0824 C.ar    1  UNL1       -0.0042
     36 C         142.5310  137.9184  157.1389 C.ar    1  UNL1       -0.0212
     37 C         142.7357  136.4391  157.2801 C.ar    1  UNL1        0.0104
     38 C         143.0054  131.8141  156.2405 C.3     1  UNL1        0.0949
     39 C         142.8006  133.2934  156.0994 C.2     1  UNL1        0.2266
     40 O         141.5083  133.8228  155.5520 O.2     1  UNL1       -0.2748
     41 N         143.8882  134.2431  156.5057 N.am    1  UNL1       -0.2839
     42 H         144.7364  133.8956  156.8649 H       1  UNL1        0.1549
@<TRIPOS>BOND
     1    38    39    1
     2    39    40    2
     3    39    41   am
     4    41    32    1
     5    32    33   ar
     6    33    34   ar
     7    34    35   ar
     8    35    36   ar
     9    36    26    1
    10    26    27    1
    11    27    28    1
    12    28    29    1
    13    29    25    1
    14    25     1    1
    15     1     2   ar
    16     2     3   ar
    17     3     4   ar
    18     4     7    1
    19     7     8    2
    20     7     9    1
    21     9    10   ar
    22    10    11   ar
    23    11    12   ar
    24    12    13   ar
    25    13    14   ar
    26    14    15   ar
    27    15    16   ar
    28    16    17   ar
    29    17    18    1
    30    18    19   ar
    31    19    20   ar
    32    20    21   ar
    33    21    22    1
    34    21    23   ar
    35    23    24   ar
    36     4     5   ar
    37     5     6   ar
    38    29    30    1
    39    30    31    1
    40    36    37   ar
    41    37    32   ar
    42    31    26    1
    43     6     1   ar
    44    17     9   ar
    45    24    18   ar
    46    16    11   ar
    47    41    42    1
@<TRIPOS>MOLECULE
*****
 42 47 0 0 0
SMALL
GASTEIGER

@<TRIPOS>ATOM
      1 C         138.4525  138.8331  162.4560 C.ar    1  UNL1       -0.0061
      2 C         138.0827  140.1197  163.1324 C.ar    1  UNL1       -0.0028
      3 C         138.0965  140.2109  164.6297 C.ar    1  UNL1        0.0030
      4 C         138.4802  139.0153  165.4503 C.ar    1  UNL1        0.0420
      5 C         138.8501  137.7286  164.7737 C.ar    1  UNL1        0.0030
      6 C         138.8362  137.6375  163.2766 C.ar    1  UNL1       -0.0028
      7 C         138.4941  139.1064  166.9474 C.2     1  UNL1        0.2297
      8 O         137.4575  138.3803  167.7526 O.2     1  UNL1       -0.2833
      9 C         139.5444  139.9237  167.6394 C.ar    1  UNL1        0.1873
     10 N         139.4224  140.5490  168.9974 N.ar    1  UNL1       -0.2235
     11 C         140.7038  141.2709  169.2922 C.ar    1  UNL1        0.0991
     12 C         141.1564  142.0682  170.4794 C.ar    1  UNL1        0.0206
     13 C         142.5230  142.6864  170.4907 C.ar    1  UNL1        0.0016
     14 C         143.4370  142.5073  169.3149 C.ar    1  UNL1        0.0016
     15 C         142.9843  141.7100  168.1278 C.ar    1  UNL1        0.0191
     16 C         141.6177  141.0918  168.1164 C.ar    1  UNL1        0.0830
     17 N         140.9012  140.2592  167.0949 N.ar    1  UNL1       -0.2877
     18 C         141.4459  139.8363  165.7628 C.ar    1  UNL1        0.0656
     19 C         141.4666  140.8062  164.6188 C.ar    1  UNL1        0.0199
     20 C         142.0113  140.3833  163.2867 C.ar    1  UNL1        0.0311
     21 C         142.5354  138.9905  163.0986 C.ar    1  UNL1        0.1402
     22 F         143.0801  138.5677  161.7665 F       1  UNL1       -0.2042
     23 C         142.5148  138.0206  164.2427 C.ar    1  UNL1        0.0311
     24 C         141.9701  138.4435  165.5748 C.ar    1  UNL1        0.0199
     25 C         138.4387  138.7419  160.9587 C.3     1  UNL1        0.0991
     26 C         140.2159  142.0554  158.4864 C.3     1  UNL1        0.0251
     27 C         141.1102  141.0381  159.1310 C.3     1  UNL1        0.0217
     28 C         140.5178  139.9336  159.9551 C.3     1  UNL1        0.0727
     29 N         139.0311  139.8464  160.1346 N.3     1  UNL1       -0.2689
     30 C         138.1369  140.8636  159.4901 C.3     1  UNL1        0.0727
     31 C         138.7293  141.9681  158.6659 C.3     1  UNL1        0.0217
     32 C         140.7936  145.6356  156.8745 C.ar    1  UNL1        0.0500
     33 C         141.9931  145.3689  156.0140 C.ar    1  UNL1        0.0147
     34 C         142.6001  143.9977  155.9778 C.ar    1  UNL1        0.0009
     35 C         142.0077  142.8932  156.8019 C.ar    1  UNL1       -0.0042
     36 C         140.8083  143.1599  157.6623 C.ar    1  UNL1       -0.0212
     37 C         140.2012  144.5311  157.6986 C.ar    1  UNL1        0.0104
     38 C         138.4760  148.7351  155.9960 C.3     1  UNL1        0.0949
     39 C         139.0830  147.3639  155.9596 C.2     1  UNL1        0.2266
     40 O         138.5864  146.3498  154.9723 O.2     1  UNL1       -0.2748
     41 N         140.1866  147.0068  156.9107 N.am    1  UNL1       -0.2839
     42 H         140.5126  147.6724  157.5588 H       1  UNL1        0.1549
@<TRIPOS>BOND
     1    38    39    1
     2    39    40    2
     3    39    41   am
     4    41    32    1
     5    32    33   ar
     6    33    34   ar
     7    34    35   ar
     8    35    36   ar
     9    36    26    1
    10    26    27    1
    11    27    28    1
    12    28    29    1
    13    29    25    1
    14    25     1    1
    15     1     2   ar
    16     2     3   ar
    17     3     4   ar
    18     4     7    1
    19     7     8    2
    20     7     9    1
    21     9    10   ar
    22    10    11   ar
    23    11    12   ar
    24    12    13   ar
    25    13    14   ar
    26    14    15   ar
    27    15    16   ar
    28    16    17   ar
    29    17    18    1
    30    18    19   ar
    31    19    20   ar
    32    20    21   ar
    33    21    22    1
    34    21    23   ar
    35    23    24   ar
    36     4     5   ar
    37     5     6   ar
    38    29    30    1
    39    30    31    1
    40    36    37   ar
    41    37    32   ar
    42    31    26    1
    43     6     1   ar
    44    17     9   ar
    45    24    18   ar
    46    16    11   ar
    47    41    42    1
@<TRIPOS>MOLECULE
*****
 42 47 0 0 0
SMALL
GASTEIGER

@<TRIPOS>ATOM
      1 C         139.8671  140.9184  161.7125 C.ar    1  UNL1       -0.0061
      2 C         138.5802  141.4326  162.2866 C.ar    1  UNL1       -0.0028
      3 C         138.1954  141.0856  163.6944 C.ar    1  UNL1        0.0030
      4 C         139.0975  140.2244  164.5279 C.ar    1  UNL1        0.0420
      5 C         140.3844  139.7103  163.9536 C.ar    1  UNL1        0.0030
      6 C         140.7691  140.0573  162.5460 C.ar    1  UNL1       -0.0028
      7 C         138.7127  139.8774  165.9355 C.2     1  UNL1        0.2297
      8 O         137.5164  139.0103  166.1939 O.2     1  UNL1       -0.2833
      9 C         139.5243  140.3975  167.0848 C.ar    1  UNL1        0.1873
     10 N         139.7500  139.6984  168.3925 N.ar    1  UNL1       -0.2235
     11 C         140.6179  140.5769  169.2441 C.ar    1  UNL1        0.0991
     12 C         141.1654  140.4063  170.6301 C.ar    1  UNL1        0.0206
     13 C         142.0235  141.4777  171.2346 C.ar    1  UNL1        0.0016
     14 C         142.3341  142.7198  170.4531 C.ar    1  UNL1        0.0016
     15 C         141.7866  142.8904  169.0671 C.ar    1  UNL1        0.0191
     16 C         140.9285  141.8190  168.4626 C.ar    1  UNL1        0.0830
     17 N         140.2526  141.7081  167.1281 N.ar    1  UNL1       -0.2877
     18 C         140.2973  142.7287  166.0297 C.ar    1  UNL1        0.0656
     19 C         141.4792  142.7874  165.1081 C.ar    1  UNL1        0.0199
     20 C         141.5238  143.8080  164.0097 C.ar    1  UNL1        0.0311
     21 C         140.3865  144.7699  163.8330 C.ar    1  UNL1        0.1402
     22 F         140.4312  145.7905  162.7346 F       1  UNL1       -0.2042
     23 C         139.2046  144.7112  164.7546 C.ar    1  UNL1        0.0311
     24 C         139.1599  143.6906  165.8530 C.ar    1  UNL1        0.0199
     25 C         140.2519  141.2654  160.3048 C.3     1  UNL1        0.0991
     26 C         141.5177  138.0220  157.4538 C.3     1  UNL1        0.0251
     27 C         142.5430  138.9455  158.0422 C.3     1  UNL1        0.0217
     28 C         142.1210  140.0267  158.9925 C.3     1  UNL1        0.0727
     29 N         140.6738  140.1843  159.3545 N.3     1  UNL1       -0.2689
     30 C         139.6487  139.2608  158.7661 C.3     1  UNL1        0.0727
     31 C         140.0707  138.1797  157.8158 C.3     1  UNL1        0.0217
     32 C         143.3968  134.8571  155.9696 C.ar    1  UNL1        0.0500
     33 C         142.7836  134.7786  154.6029 C.ar    1  UNL1        0.0147
     34 C         141.7485  135.7812  154.1865 C.ar    1  UNL1        0.0009
     35 C         141.3265  136.8623  155.1368 C.ar    1  UNL1       -0.0042
     36 C         141.9397  136.9409  156.5035 C.ar    1  UNL1       -0.0212
     37 C         142.9749  135.9383  156.9199 C.ar    1  UNL1        0.0104
     38 C         145.0449  131.5377  157.3892 C.3     1  UNL1        0.0949
     39 C         144.0097  132.5403  156.9729 C.2     1  UNL1        0.2266
     40 O         142.5524  132.2286  157.1435 O.2     1  UNL1       -0.2748
     41 N         144.4319  133.8546  156.3860 N.am    1  UNL1       -0.2839
     42 H         145.3884  134.0591  156.2740 H       1  UNL1        0.1549
@<TRIPOS>BOND
     1    38    39    1
     2    39    40    2
     3    39    41   am
     4    41    32    1
     5    32    33   ar
     6    33    34   ar
     7    34    35   ar
     8    35    36   ar
     9    36    26    1
    10    26    27    1
    11    27    28    1
    12    28    29    1
    13    29    25    1
    14    25     1    1
    15     1     2   ar
    16     2     3   ar
    17     3     4   ar
    18     4     7    1
    19     7     8    2
    20     7     9    1
    21     9    10   ar
    22    10    11   ar
    23    11    12   ar
    24    12    13   ar
    25    13    14   ar
    26    14    15   ar
    27    15    16   ar
    28    16    17   ar
    29    17    18    1
    30    18    19   ar
    31    19    20   ar
    32    20    21   ar
    33    21    22    1
    34    21    23   ar
    35    23    24   ar
    36     4     5   ar
    37     5     6   ar
    38    29    30    1
    39    30    31    1
    40    36    37   ar
    41    37    32   ar
    42    31    26    1
    43     6     1   ar
    44    17     9   ar
    45    24    18   ar
    46    16    11   ar
    47    41    42    1
@<TRIPOS>MOLECULE
*****
 42 47 0 0 0
SMALL
GASTEIGER

@<TRIPOS>ATOM
      1 C         143.8813  141.7921  162.0424 C.ar    1  UNL1       -0.0061
      2 C         144.3324  142.0281  163.4533 C.ar    1  UNL1       -0.0028
      3 C         143.8533  141.1287  164.5542 C.ar    1  UNL1        0.0030
      4 C         142.9232  139.9935  164.2440 C.ar    1  UNL1        0.0420
      5 C         142.4722  139.7576  162.8329 C.ar    1  UNL1        0.0030
      6 C         142.9512  140.6569  161.7322 C.ar    1  UNL1       -0.0028
      7 C         142.4442  139.0942  165.3447 C.2     1  UNL1        0.2297
      8 O         142.2562  137.6285  165.0874 O.2     1  UNL1       -0.2833
      9 C         142.1532  139.6606  166.7029 C.ar    1  UNL1        0.1873
     10 N         142.8774  139.3235  167.9725 N.ar    1  UNL1       -0.2235
     11 C         142.2586  140.1181  169.0841 C.ar    1  UNL1        0.0991
     12 C         142.5599  140.1945  170.5515 C.ar    1  UNL1        0.0206
     13 C         141.7546  141.0991  171.4364 C.ar    1  UNL1        0.0016
     14 C         140.6480  141.9274  170.8538 C.ar    1  UNL1        0.0016
     15 C         140.3467  141.8511  169.3864 C.ar    1  UNL1        0.0191
     16 C         141.1521  140.9464  168.5015 C.ar    1  UNL1        0.0830
     17 N         141.0869  140.6637  167.0299 N.ar    1  UNL1       -0.2877
     18 C         140.1244  141.2764  166.0562 C.ar    1  UNL1        0.0656
     19 C         140.2481  142.7258  165.6906 C.ar    1  UNL1        0.0199
     20 C         139.2855  143.3386  164.7168 C.ar    1  UNL1        0.0311
     21 C         138.1993  142.5018  164.1087 C.ar    1  UNL1        0.1402
     22 F         137.2368  143.1146  163.1350 F       1  UNL1       -0.2042
     23 C         138.0755  141.0523  164.4743 C.ar    1  UNL1        0.0311
     24 C         139.0380  140.4396  165.4480 C.ar    1  UNL1        0.0199
     25 C         144.3604  142.6915  160.9415 C.3     1  UNL1        0.0991
     26 C         141.4065  144.5043  158.0712 C.3     1  UNL1        0.0251
     27 C         142.6016  143.7630  157.5491 C.3     1  UNL1        0.0217
     28 C         143.5862  143.1588  158.5059 C.3     1  UNL1        0.0727
     29 N         143.3758  143.2957  159.9848 N.3     1  UNL1       -0.2689
     30 C         142.1808  144.0370  160.5068 C.3     1  UNL1        0.0727
     31 C         141.1962  144.6412  159.5501 C.3     1  UNL1        0.0217
     32 C         139.0195  147.1447  156.3162 C.ar    1  UNL1        0.0500
     33 C         138.4527  146.3171  155.2010 C.ar    1  UNL1        0.0147
     34 C         138.8705  144.8852  155.0425 C.ar    1  UNL1        0.0009
     35 C         139.8551  144.2809  155.9993 C.ar    1  UNL1       -0.0042
     36 C         140.4219  145.1085  157.1145 C.ar    1  UNL1       -0.0212
     37 C         140.0041  146.5405  157.2730 C.ar    1  UNL1        0.0104
     38 C         138.5142  151.0088  155.5654 C.3     1  UNL1        0.0949
     39 C         138.9321  149.5769  155.4069 C.2     1  UNL1        0.2266
     40 O         139.6803  149.1453  154.1806 O.2     1  UNL1       -0.2748
     41 N         138.6017  148.5766  156.4747 N.am    1  UNL1       -0.2839
     42 H         138.1106  148.8599  157.2796 H       1  UNL1        0.1549
@<TRIPOS>BOND
     1    38    39    1
     2    39    40    2
     3    39    41   am
     4    41    32    1
     5    32    33   ar
     6    33    34   ar
     7    34    35   ar
     8    35    36   ar
     9    36    26    1
    10    26    27    1
    11    27    28    1
    12    28    29    1
    13    29    25    1
    14    25     1    1
    15     1     2   ar
    16     2     3   ar
    17     3     4   ar
    18     4     7    1
    19     7     8    2
    20     7     9    1
    21     9    10   ar
    22    10    11   ar
    23    11    12   ar
    24    12    13   ar
    25    13    14   ar
    26    14    15   ar
    27    15    16   ar
    28    16    17   ar
    29    17    18    1
    30    18    19   ar
    31    19    20   ar
    32    20    21   ar
    33    21    22    1
    34    21    23   ar
    35    23    24   ar
    36     4     5   ar
    37     5     6   ar
    38    29    30    1
    39    30    31    1
    40    36    37   ar
    41    37    32   ar
    42    31    26    1
    43     6     1   ar
    44    17     9   ar
    45    24    18   ar
    46    16    11   ar
    47    41    42    1
@<TRIPOS>MOLECULE
*****
 42 47 0 0 0
SMALL
GASTEIGER

@<TRIPOS>ATOM
      1 C         141.6890  138.0354  158.9825 C.ar    1  UNL1       -0.0061
      2 C         140.2742  138.5294  158.9168 C.ar    1  UNL1       -0.0028
      3 C         139.4908  138.7313  160.1800 C.ar    1  UNL1        0.0030
      4 C         140.1223  138.4393  161.5089 C.ar    1  UNL1        0.0420
      5 C         141.5372  137.9453  161.5746 C.ar    1  UNL1        0.0030
      6 C         142.3204  137.7433  160.3114 C.ar    1  UNL1       -0.0028
      7 C         139.3390  138.6412  162.7721 C.2     1  UNL1        0.2297
      8 O         138.6663  137.4743  163.4320 O.2     1  UNL1       -0.2833
      9 C         139.2285  140.0101  163.3753 C.ar    1  UNL1        0.1873
     10 N         138.0201  140.8978  163.3319 N.ar    1  UNL1       -0.2235
     11 C         138.3517  142.1680  164.0576 C.ar    1  UNL1        0.0991
     12 C         137.5493  143.4048  164.3341 C.ar    1  UNL1        0.0206
     13 C         138.1602  144.5389  165.1024 C.ar    1  UNL1        0.0016
     14 C         139.5735  144.4363  165.5944 C.ar    1  UNL1        0.0016
     15 C         140.3759  143.1995  165.3179 C.ar    1  UNL1        0.0191
     16 C         139.7650  142.0654  164.5496 C.ar    1  UNL1        0.0830
     17 N         140.3069  140.7317  164.1279 N.ar    1  UNL1       -0.2877
     18 C         141.6852  140.2111  164.4093 C.ar    1  UNL1        0.0656
     19 C         142.8608  140.7528  163.6515 C.ar    1  UNL1        0.0199
     20 C         144.2391  140.2322  163.9329 C.ar    1  UNL1        0.0311
     21 C         144.4418  139.1698  164.9723 C.ar    1  UNL1        0.1402
     22 F         145.8201  138.6492  165.2538 F       1  UNL1       -0.2042
     23 C         143.2662  138.6281  165.7302 C.ar    1  UNL1        0.0311
     24 C         141.8879  139.1487  165.4487 C.ar    1  UNL1        0.0199
     25 C         142.4723  137.8334  157.7193 C.3     1  UNL1        0.0991
     26 C         141.9714  134.0453  155.3425 C.3     1  UNL1        0.0251
     27 C         143.0663  134.1516  156.3623 C.3     1  UNL1        0.0217
     28 C         143.2333  135.4143  157.1546 C.3     1  UNL1        0.0727
     29 N         142.3054  136.5707  156.9271 N.3     1  UNL1       -0.2689
     30 C         141.2105  136.4644  155.9073 C.3     1  UNL1        0.0727
     31 C         141.0435  135.2017  155.1150 C.3     1  UNL1        0.0217
     32 C         140.6507  130.4809  154.2019 C.ar    1  UNL1        0.0500
     33 C         141.4704  130.2572  152.9657 C.ar    1  UNL1        0.0147
     34 C         142.4571  131.2962  152.5219 C.ar    1  UNL1        0.0009
     35 C         142.6240  132.5589  153.3141 C.ar    1  UNL1       -0.0042
     36 C         141.8044  132.7826  154.5503 C.ar    1  UNL1       -0.0212
     37 C         140.8177  131.7436  154.9942 C.ar    1  UNL1        0.0104
     38 C         139.1348  127.2405  155.9201 C.3     1  UNL1        0.0949
     39 C         140.1215  128.2795  155.4762 C.2     1  UNL1        0.2266
     40 O         141.5656  128.1560  155.8627 O.2     1  UNL1       -0.2748
     41 N         139.6641  129.4419  154.6458 N.am    1  UNL1       -0.2839
     42 H         138.7163  129.5230  154.3921 H       1  UNL1        0.1549
@<TRIPOS>BOND
     1    38    39    1
     2    39    40    2
     3    39    41   am
     4    41    32    1
     5    32    33   ar
     6    33    34   ar
     7    34    35   ar
     8    35    36   ar
     9    36    26    1
    10    26    27    1
    11    27    28    1
    12    28    29    1
    13    29    25    1
    14    25     1    1
    15     1     2   ar
    16     2     3   ar
    17     3     4   ar
    18     4     7    1
    19     7     8    2
    20     7     9    1
    21     9    10   ar
    22    10    11   ar
    23    11    12   ar
    24    12    13   ar
    25    13    14   ar
    26    14    15   ar
    27    15    16   ar
    28    16    17   ar
    29    17    18    1
    30    18    19   ar
    31    19    20   ar
    32    20    21   ar
    33    21    22    1
    34    21    23   ar
    35    23    24   ar
    36     4     5   ar
    37     5     6   ar
    38    29    30    1
    39    30    31    1
    40    36    37   ar
    41    37    32   ar
    42    31    26    1
    43     6     1   ar
    44    17     9   ar
    45    24    18   ar
    46    16    11   ar
    47    41    42    1
@<TRIPOS>MOLECULE
*****
 42 47 0 0 0
SMALL
GASTEIGER

@<TRIPOS>ATOM
      1 C         138.4808  138.9298  162.5483 C.ar    1  UNL1       -0.0061
      2 C         138.0452  140.1779  163.2573 C.ar    1  UNL1       -0.0028
      3 C         138.0401  140.2258  164.7566 C.ar    1  UNL1        0.0030
      4 C         138.4706  139.0257  165.5468 C.ar    1  UNL1        0.0420
      5 C         138.9062  137.7777  164.8377 C.ar    1  UNL1        0.0030
      6 C         138.9113  137.7297  163.3386 C.ar    1  UNL1       -0.0028
      7 C         138.4656  139.0737  167.0460 C.2     1  UNL1        0.2297
      8 O         137.4375  138.3006  167.8176 O.2     1  UNL1       -0.2833
      9 C         139.4886  139.8947  167.7736 C.ar    1  UNL1        0.1873
     10 N         139.3426  140.4646  169.1534 N.ar    1  UNL1       -0.2235
     11 C         140.6010  141.2121  169.4818 C.ar    1  UNL1        0.0991
     12 C         141.0250  141.9771  170.7003 C.ar    1  UNL1        0.0206
     13 C         142.3728  142.6341  170.7420 C.ar    1  UNL1        0.0016
     14 C         143.2965  142.5262  169.5651 C.ar    1  UNL1        0.0016
     15 C         142.8724  141.7612  168.3465 C.ar    1  UNL1        0.0191
     16 C         141.5247  141.1042  168.3048 C.ar    1  UNL1        0.0830
     17 N         140.8372  140.2900  167.2492 N.ar    1  UNL1       -0.2877
     18 C         141.3996  139.9337  165.9050 C.ar    1  UNL1        0.0656
     19 C         141.3326  140.9213  164.7782 C.ar    1  UNL1        0.0199
     20 C         141.8950  140.5650  163.4340 C.ar    1  UNL1        0.0311
     21 C         142.5244  139.2209  163.2167 C.ar    1  UNL1        0.1402
     22 F         143.0868  138.8646  161.8725 F       1  UNL1       -0.2042
     23 C         142.5913  138.2331  164.3435 C.ar    1  UNL1        0.0311
     24 C         142.0289  138.5894  165.6877 C.ar    1  UNL1        0.0199
     25 C         138.4858  138.8819  161.0491 C.3     1  UNL1        0.0991
     26 C         140.1813  142.3210  158.6937 C.3     1  UNL1        0.0251
     27 C         138.7036  142.2346  158.9368 C.3     1  UNL1        0.0217
     28 C         138.1385  141.0883  159.7219 C.3     1  UNL1        0.0727
     29 N         139.0510  140.0282  160.2639 N.3     1  UNL1       -0.2689
     30 C         140.5286  140.1146  160.0208 C.3     1  UNL1        0.0727
     31 C         141.0938  141.2610  159.2357 C.3     1  UNL1        0.0217
     32 C         142.4544  144.3848  156.1789 C.ar    1  UNL1        0.0500
     33 C         141.8769  145.7601  156.3383 C.ar    1  UNL1        0.0147
     34 C         140.7342  145.9888  157.2827 C.ar    1  UNL1        0.0009
     35 C         140.1690  144.8425  158.0678 C.ar    1  UNL1       -0.0042
     36 C         140.7465  143.4673  157.9085 C.ar    1  UNL1       -0.0212
     37 C         141.8892  143.2385  156.9641 C.ar    1  UNL1        0.0104
     38 C         144.4803  143.3815  152.9172 C.3     1  UNL1        0.0949
     39 C         143.3376  143.6103  153.8616 C.2     1  UNL1        0.2266
     40 O         141.9355  143.2934  153.4331 O.2     1  UNL1       -0.2748
     41 N         143.5970  144.1560  155.2345 N.am    1  UNL1       -0.2839
     42 H         144.5173  144.3641  155.5157 H       1  UNL1        0.1549
@<TRIPOS>BOND
     1    38    39    1
     2    39    40    2
     3    39    41   am
     4    41    32    1
     5    32    33   ar
     6    33    34   ar
     7    34    35   ar
     8    35    36   ar
     9    36    26    1
    10    26    27    1
    11    27    28    1
    12    28    29    1
    13    29    25    1
    14    25     1    1
    15     1     2   ar
    16     2     3   ar
    17     3     4   ar
    18     4     7    1
    19     7     8    2
    20     7     9    1
    21     9    10   ar
    22    10    11   ar
    23    11    12   ar
    24    12    13   ar
    25    13    14   ar
    26    14    15   ar
    27    15    16   ar
    28    16    17   ar
    29    17    18    1
    30    18    19   ar
    31    19    20   ar
    32    20    21   ar
    33    21    22    1
    34    21    23   ar
    35    23    24   ar
    36     4     5   ar
    37     5     6   ar
    38    29    30    1
    39    30    31    1
    40    36    37   ar
    41    37    32   ar
    42    31    26    1
    43     6     1   ar
    44    17     9   ar
    45    24    18   ar
    46    16    11   ar
    47    41    42    1
@<TRIPOS>MOLECULE
*****
 42 47 0 0 0
SMALL
GASTEIGER

@<TRIPOS>ATOM
      1 C         140.5863  138.2150  162.2494 C.ar    1  UNL1       -0.0061
      2 C         139.2536  138.8974  162.3392 C.ar    1  UNL1       -0.0028
      3 C         138.5916  139.0777  163.6731 C.ar    1  UNL1        0.0030
      4 C         139.2624  138.5755  164.9173 C.ar    1  UNL1        0.0420
      5 C         140.5952  137.8930  164.8274 C.ar    1  UNL1        0.0030
      6 C         141.2571  137.7128  163.4935 C.ar    1  UNL1       -0.0028
      7 C         138.6006  138.7557  166.2512 C.2     1  UNL1        0.2297
      8 O         137.3752  137.9614  166.5938 O.2     1  UNL1       -0.2833
      9 C         139.1641  139.7302  167.2425 C.ar    1  UNL1        0.1873
     10 N         139.1927  139.5556  168.7320 N.ar    1  UNL1       -0.2235
     11 C         139.8442  140.7680  169.3284 C.ar    1  UNL1        0.0991
     12 C         140.1452  141.1500  170.7474 C.ar    1  UNL1        0.0206
     13 C         140.8202  142.4559  171.0454 C.ar    1  UNL1        0.0016
     14 C         141.1942  143.3799  169.9245 C.ar    1  UNL1        0.0016
     15 C         140.8932  142.9979  168.5056 C.ar    1  UNL1        0.0191
     16 C         140.2182  141.6919  168.2075 C.ar    1  UNL1        0.0830
     17 N         139.7978  141.0506  166.9184 N.ar    1  UNL1       -0.2877
     18 C         139.9794  141.6282  165.5460 C.ar    1  UNL1        0.0656
     19 C         138.8447  142.3473  164.8787 C.ar    1  UNL1        0.0199
     20 C         139.0263  142.9249  163.5064 C.ar    1  UNL1        0.0311
     21 C         140.3426  142.7834  162.8012 C.ar    1  UNL1        0.1402
     22 F         140.5242  143.3610  161.4288 F       1  UNL1       -0.2042
     23 C         141.4773  142.0642  163.4684 C.ar    1  UNL1        0.0311
     24 C         141.2958  141.4866  164.8408 C.ar    1  UNL1        0.0199
     25 C         141.2483  138.0347  160.9154 C.3     1  UNL1        0.0991
     26 C         141.7999  141.5664  158.1818 C.3     1  UNL1        0.0251
     27 C         140.8523  140.4666  157.8043 C.3     1  UNL1        0.0217
     28 C         140.6684  139.2894  158.7155 C.3     1  UNL1        0.0727
     29 N         141.4321  139.2119  160.0042 N.3     1  UNL1       -0.2689
     30 C         142.3797  140.3117  160.3817 C.3     1  UNL1        0.0727
     31 C         142.5636  141.4890  159.4705 C.3     1  UNL1        0.0217
     32 C         141.4681  145.2146  156.6550 C.ar    1  UNL1        0.0500
     33 C         142.3515  145.0982  155.4482 C.ar    1  UNL1        0.0147
     34 C         143.0510  143.8046  155.1528 C.ar    1  UNL1        0.0009
     35 C         142.8671  142.6274  156.0640 C.ar    1  UNL1       -0.0042
     36 C         141.9838  142.7437  157.2706 C.ar    1  UNL1       -0.0212
     37 C         141.2842  144.0373  157.5662 C.ar    1  UNL1        0.0104
     38 C         138.7920  148.1428  156.5370 C.3     1  UNL1        0.0949
     39 C         139.4915  146.8492  156.2415 C.2     1  UNL1        0.2266
     40 O         138.9138  145.8966  155.2370 O.2     1  UNL1       -0.2748
     41 N         140.7686  146.5081  156.9505 N.am    1  UNL1       -0.2839
     42 H         141.1477  147.1333  157.6097 H       1  UNL1        0.1549
@<TRIPOS>BOND
     1    38    39    1
     2    39    40    2
     3    39    41   am
     4    41    32    1
     5    32    33   ar
     6    33    34   ar
     7    34    35   ar
     8    35    36   ar
     9    36    26    1
    10    26    27    1
    11    27    28    1
    12    28    29    1
    13    29    25    1
    14    25     1    1
    15     1     2   ar
    16     2     3   ar
    17     3     4   ar
    18     4     7    1
    19     7     8    2
    20     7     9    1
    21     9    10   ar
    22    10    11   ar
    23    11    12   ar
    24    12    13   ar
    25    13    14   ar
    26    14    15   ar
    27    15    16   ar
    28    16    17   ar
    29    17    18    1
    30    18    19   ar
    31    19    20   ar
    32    20    21   ar
    33    21    22    1
    34    21    23   ar
    35    23    24   ar
    36     4     5   ar
    37     5     6   ar
    38    29    30    1
    39    30    31    1
    40    36    37   ar
    41    37    32   ar
    42    31    26    1
    43     6     1   ar
    44    17     9   ar
    45    24    18   ar
    46    16    11   ar
    47    41    42    1
@<TRIPOS>MOLECULE
*****
 42 47 0 0 0
SMALL
GASTEIGER

@<TRIPOS>ATOM
      1 C         141.9066  138.1825  158.6333 C.ar    1  UNL1       -0.0061
      2 C         140.4439  138.4971  158.5268 C.ar    1  UNL1       -0.0028
      3 C         139.6131  138.6310  159.7685 C.ar    1  UNL1        0.0030
      4 C         140.2451  138.4502  161.1168 C.ar    1  UNL1        0.0420
      5 C         141.7079  138.1356  161.2233 C.ar    1  UNL1        0.0030
      6 C         142.5387  138.0017  159.9816 C.ar    1  UNL1       -0.0028
      7 C         139.4144  138.5840  162.3586 C.2     1  UNL1        0.2297
      8 O         138.7709  137.3722  162.9646 O.2     1  UNL1       -0.2833
      9 C         139.2272  139.9297  162.9943 C.ar    1  UNL1        0.1873
     10 N         138.0113  140.7999  162.8745 N.ar    1  UNL1       -0.2235
     11 C         138.2557  142.0495  163.6676 C.ar    1  UNL1        0.0991
     12 C         137.4101  143.2638  163.9131 C.ar    1  UNL1        0.0206
     13 C         137.9314  144.3802  164.7686 C.ar    1  UNL1        0.0016
     14 C         139.2983  144.2822  165.3785 C.ar    1  UNL1        0.0016
     15 C         140.1439  143.0679  165.1330 C.ar    1  UNL1        0.0191
     16 C         139.6226  141.9515  164.2775 C.ar    1  UNL1        0.0830
     17 N         140.2230  140.6415  163.8613 N.ar    1  UNL1       -0.2877
     18 C         141.5808  140.1325  164.2450 C.ar    1  UNL1        0.0656
     19 C         142.8096  140.7441  163.6401 C.ar    1  UNL1        0.0199
     20 C         144.1674  140.2351  164.0237 C.ar    1  UNL1        0.0311
     21 C         144.2966  139.1145  165.0123 C.ar    1  UNL1        0.1402
     22 F         145.6544  138.6055  165.3959 F       1  UNL1       -0.2042
     23 C         143.0678  138.5028  165.6173 C.ar    1  UNL1        0.0311
     24 C         141.7100  139.0117  165.2337 C.ar    1  UNL1        0.0199
     25 C         142.7374  138.0486  157.3915 C.3     1  UNL1        0.0991
     26 C         143.1118  134.0535  155.3548 C.3     1  UNL1        0.0251
     27 C         143.4020  134.1778  156.8212 C.3     1  UNL1        0.0217
     28 C         143.2772  135.5095  157.5001 C.3     1  UNL1        0.0727
     29 N         142.8622  136.7169  156.7126 N.3     1  UNL1       -0.2689
     30 C         142.5721  136.5925  155.2462 C.3     1  UNL1        0.0727
     31 C         142.6968  135.2608  154.5673 C.3     1  UNL1        0.0217
     32 C         144.2741  130.3425  154.5624 C.ar    1  UNL1        0.0500
     33 C         143.4861  130.0583  153.3180 C.ar    1  UNL1        0.0147
     34 C         142.5734  131.1058  152.7526 C.ar    1  UNL1        0.0009
     35 C         142.4486  132.4375  153.4316 C.ar    1  UNL1       -0.0042
     36 C         143.2366  132.7217  154.6758 C.ar    1  UNL1       -0.0212
     37 C         144.1493  131.6742  155.2413 C.ar    1  UNL1        0.0104
     38 C         145.5616  127.2154  156.6394 C.3     1  UNL1        0.0949
     39 C         144.6488  128.2630  156.0740 C.2     1  UNL1        0.2266
     40 O         143.1981  128.2784  156.4548 O.2     1  UNL1       -0.2748
     41 N         145.1868  129.2950  155.1277 N.am    1  UNL1       -0.2839
     42 H         146.1390  129.2849  154.8778 H       1  UNL1        0.1549
@<TRIPOS>BOND
     1    38    39    1
     2    39    40    2
     3    39    41   am
     4    41    32    1
     5    32    33   ar
     6    33    34   ar
     7    34    35   ar
     8    35    36   ar
     9    36    26    1
    10    26    27    1
    11    27    28    1
    12    28    29    1
    13    29    25    1
    14    25     1    1
    15     1     2   ar
    16     2     3   ar
    17     3     4   ar
    18     4     7    1
    19     7     8    2
    20     7     9    1
    21     9    10   ar
    22    10    11   ar
    23    11    12   ar
    24    12    13   ar
    25    13    14   ar
    26    14    15   ar
    27    15    16   ar
    28    16    17   ar
    29    17    18    1
    30    18    19   ar
    31    19    20   ar
    32    20    21   ar
    33    21    22    1
    34    21    23   ar
    35    23    24   ar
    36     4     5   ar
    37     5     6   ar
    38    29    30    1
    39    30    31    1
    40    36    37   ar
    41    37    32   ar
    42    31    26    1
    43     6     1   ar
    44    17     9   ar
    45    24    18   ar
    46    16    11   ar
    47    41    42    1
@<TRIPOS>MOLECULE
*****
 42 47 0 0 0
SMALL
GASTEIGER

@<TRIPOS>ATOM
      1 C         141.6339  143.6155  161.0053 C.ar    1  UNL1       -0.0061
      2 C         141.2208  143.9284  162.4129 C.ar    1  UNL1       -0.0028
      3 C         141.7204  143.0828  163.5468 C.ar    1  UNL1        0.0030
      4 C         142.6332  141.9245  163.2729 C.ar    1  UNL1        0.0420
      5 C         143.0463  141.6116  161.8652 C.ar    1  UNL1        0.0030
      6 C         142.5467  142.4571  160.7315 C.ar    1  UNL1       -0.0028
      7 C         143.1328  141.0789  164.4067 C.2     1  UNL1        0.2297
      8 O         144.3885  140.2745  164.2455 O.2     1  UNL1       -0.2833
      9 C         142.3767  141.0379  165.7015 C.ar    1  UNL1        0.1873
     10 N         142.8373  141.6089  167.0099 N.ar    1  UNL1       -0.2235
     11 C         141.7726  141.3425  168.0324 C.ar    1  UNL1        0.0991
     12 C         141.6771  141.6748  169.4920 C.ar    1  UNL1        0.0206
     13 C         140.4631  141.2715  170.2751 C.ar    1  UNL1        0.0016
     14 C         139.3444  140.5359  169.5987 C.ar    1  UNL1        0.0016
     15 C         139.4399  140.2036  168.1391 C.ar    1  UNL1        0.0191
     16 C         140.6539  140.6070  167.3559 C.ar    1  UNL1        0.0830
     17 N         141.0273  140.4187  165.9154 N.ar    1  UNL1       -0.2877
     18 C         140.1971  139.7318  164.8719 C.ar    1  UNL1        0.0656
     19 C         139.1305  140.4926  164.1416 C.ar    1  UNL1        0.0199
     20 C         138.3002  139.8056  163.0981 C.ar    1  UNL1        0.0311
     21 C         138.5366  138.3579  162.7850 C.ar    1  UNL1        0.1402
     22 F         137.7063  137.6710  161.7415 F       1  UNL1       -0.2042
     23 C         139.6032  137.5970  163.5153 C.ar    1  UNL1        0.0311
     24 C         140.4335  138.2839  164.5587 C.ar    1  UNL1        0.0199
     25 C         141.1343  144.4611  159.8715 C.3     1  UNL1        0.0991
     26 C         138.0595  142.8192  157.0254 C.3     1  UNL1        0.0251
     27 C         138.1534  142.2788  158.4216 C.3     1  UNL1        0.0217
     28 C         139.1783  142.8261  159.3703 C.3     1  UNL1        0.0727
     29 N         140.1093  143.9138  158.9228 N.3     1  UNL1       -0.2689
     30 C         140.0154  144.4541  157.5267 C.3     1  UNL1        0.0727
     31 C         138.9905  143.9069  156.5780 C.3     1  UNL1        0.0217
     32 C         135.1927  140.5277  155.5153 C.ar    1  UNL1        0.0500
     33 C         134.9847  141.1774  154.1794 C.ar    1  UNL1        0.0147
     34 C         135.8015  142.3744  153.7922 C.ar    1  UNL1        0.0009
     35 C         136.8265  142.9217  154.7409 C.ar    1  UNL1       -0.0042
     36 C         137.0345  142.2720  156.0768 C.ar    1  UNL1       -0.0212
     37 C         136.2176  141.0749  156.4640 C.ar    1  UNL1        0.0104
     38 C         132.1537  138.3124  156.7830 C.3     1  UNL1        0.0949
     39 C         132.9706  139.5094  156.3958 C.2     1  UNL1        0.2266
     40 O         132.3822  140.8851  156.5020 O.2     1  UNL1       -0.2748
     41 N         134.3758  139.3307  155.9025 N.am    1  UNL1       -0.2839
     42 H         134.7620  138.4278  155.8328 H       1  UNL1        0.1549
@<TRIPOS>BOND
     1    38    39    1
     2    39    40    2
     3    39    41   am
     4    41    32    1
     5    32    33   ar
     6    33    34   ar
     7    34    35   ar
     8    35    36   ar
     9    36    26    1
    10    26    27    1
    11    27    28    1
    12    28    29    1
    13    29    25    1
    14    25     1    1
    15     1     2   ar
    16     2     3   ar
    17     3     4   ar
    18     4     7    1
    19     7     8    2
    20     7     9    1
    21     9    10   ar
    22    10    11   ar
    23    11    12   ar
    24    12    13   ar
    25    13    14   ar
    26    14    15   ar
    27    15    16   ar
    28    16    17   ar
    29    17    18    1
    30    18    19   ar
    31    19    20   ar
    32    20    21   ar
    33    21    22    1
    34    21    23   ar
    35    23    24   ar
    36     4     5   ar
    37     5     6   ar
    38    29    30    1
    39    30    31    1
    40    36    37   ar
    41    37    32   ar
    42    31    26    1
    43     6     1   ar
    44    17     9   ar
    45    24    18   ar
    46    16    11   ar
    47    41    42    1
