@<TRIPOS>MOLECULE
*****
 37 40 0 0 0
SMALL
GASTEIGER

@<TRIPOS>ATOM
      1 N         144.6700  142.3100  163.0950 N.3     1  UNL1       -0.2685
      2 C         144.0158  142.1797  161.7515 C.3     1  UNL1        0.1035
      3 C         142.8754  143.0813  161.3820 C.3     1  UNL1        0.1470
      4 C         141.7349  143.9828  161.0125 C.3     1  UNL1        0.1036
      5 N         141.2486  145.0147  161.9866 N.3     1  UNL1       -0.2653
      6 C         141.9027  145.1449  163.3301 C.3     1  UNL1        0.1036
      7 C         143.0432  144.2434  163.6996 C.3     1  UNL1        0.1470
      8 C         144.1836  143.3418  164.0691 C.3     1  UNL1        0.1035
      9 O         142.3891  144.1131  162.3561 O.3     1  UNL1       -0.3530
     10 C         145.8105  141.4084  163.4645 C.3     1  UNL1        0.0737
     11 C         145.5758  140.2337  164.3672 C.3     1  UNL1        0.0362
     12 C         144.6298  139.1460  163.9522 C.3     1  UNL1        0.0929
     13 N         143.1503  139.3920  163.9692 N.3     1  UNL1       -0.1793
     14 H         142.9433  139.9977  163.1750 H       1  UNL1        0.1488
     15 S         142.5081  140.0191  165.1710 S.O2    1  UNL1        0.0602
     16 O         143.1794  139.0110  166.0558 O.2     1  UNL1       -0.1530
     17 O         141.8367  141.0273  164.2862 O.2     1  UNL1       -0.1530
     18 C         140.5814  141.9005  168.7763 C.ar    1  UNL1        0.0685
     19 C         140.6583  142.6599  167.4850 C.ar    1  UNL1        0.0116
     20 C         141.3005  142.0328  166.2832 C.ar    1  UNL1        0.0206
     21 C         141.8658  140.6463  166.3728 C.ar    1  UNL1        0.1220
     22 C         141.7889  139.8869  167.6641 C.ar    1  UNL1        0.0206
     23 C         141.1467  140.5141  168.8658 C.ar    1  UNL1        0.0116
     24 N         139.2969  143.1548  171.1798 N.1     1  UNL1       -0.1908
     25 C         139.9391  142.5277  169.9781 C.1     1  UNL1        0.1004
     26 C         140.1081  145.9162  161.6171 C.3     1  UNL1        0.1202
     27 C         138.8526  145.9123  162.4380 C.3     1  UNL1        0.2228
     28 O         137.8199  144.8458  162.2238 O.3     1  UNL1       -0.4717
     29 C         138.0304  143.4733  162.7913 C.ar    1  UNL1        0.1659
     30 C         138.4251  142.3414  161.8897 C.ar    1  UNL1        0.0399
     31 C         138.6356  140.9689  162.4572 C.ar    1  UNL1        0.0135
     32 C         138.4514  140.7284  163.9263 C.ar    1  UNL1        0.0709
     33 C         138.0566  141.8603  164.8279 C.ar    1  UNL1        0.0430
     34 C         137.8461  143.2328  164.2604 C.ar    1  UNL1        0.1745
     35 F         137.4514  144.3647  165.1620 F       1  UNL1       -0.2009
     36 C         138.6619  139.3559  164.4937 C.1     1  UNL1        0.1005
     37 N         138.8723  137.9834  165.0612 N.1     1  UNL1       -0.1908
@<TRIPOS>BOND
     1    24    25    3
     2    25    18    1
     3    18    19   ar
     4    19    20   ar
     5    20    21   ar
     6    21    15    1
     7    15    16    2
     8    15    17    2
     9    15    13    1
    10    13    12    1
    11    12    11    1
    12    11    10    1
    13    10     1    1
    14     1     2    1
    15     2     3    1
    16     3     4    1
    17     4     5    1
    18     5    26    1
    19    26    27    1
    20    27    28    1
    21    28    29    1
    22    29    30   ar
    23    30    31   ar
    24    31    32   ar
    25    32    36    1
    26    36    37    3
    27    32    33   ar
    28    33    34   ar
    29    34    35    1
    30     5     6    1
    31     6     7    1
    32     7     8    1
    33     7     9    1
    34    21    22   ar
    35    22    23   ar
    36    23    18   ar
    37     8     1    1
    38     9     3    1
    39    34    29   ar
    40    13    14    1
@<TRIPOS>MOLECULE
*****
 37 40 0 0 0
SMALL
GASTEIGER

@<TRIPOS>ATOM
      1 N         142.9599  138.3241  159.1752 N.3     1  UNL1       -0.2685
      2 C         142.9999  137.5407  160.4537 C.3     1  UNL1        0.1035
      3 C         143.5620  138.1631  161.6973 C.3     1  UNL1        0.1470
      4 C         144.1242  138.7854  162.9411 C.3     1  UNL1        0.1036
      5 N         144.6463  140.1912  162.9062 N.3     1  UNL1       -0.2653
      6 C         144.6063  140.9746  161.6276 C.3     1  UNL1        0.1036
      7 C         144.0442  140.3522  160.3839 C.3     1  UNL1        0.1470
      8 C         143.4821  139.7299  159.1403 C.3     1  UNL1        0.1035
      9 O         144.0842  139.5688  161.6625 O.3     1  UNL1       -0.3530
     10 C         142.3978  137.7018  157.9315 C.3     1  UNL1        0.0737
     11 C         141.0465  138.1168  157.4300 C.3     1  UNL1        0.0362
     12 C         139.9329  138.3752  158.4012 C.3     1  UNL1        0.0929
     13 N         140.0073  139.5485  159.3328 N.3     1  UNL1       -0.1793
     14 H         140.9755  139.8694  159.3253 H       1  UNL1        0.1488
     15 S         139.6149  139.3895  160.7718 S.O2    1  UNL1        0.0602
     16 O         138.5989  138.3577  160.3808 O.2     1  UNL1       -0.1530
     17 O         140.6309  140.4214  161.1628 O.2     1  UNL1       -0.1530
     18 C         138.4378  138.9130  165.0889 C.ar    1  UNL1        0.0685
     19 C         139.1268  137.7905  164.3711 C.ar    1  UNL1        0.0116
     20 C         139.5192  137.9494  162.9321 C.ar    1  UNL1        0.0206
     21 C         139.2225  139.2307  162.2109 C.ar    1  UNL1        0.1220
     22 C         138.5335  140.3531  162.9287 C.ar    1  UNL1        0.0206
     23 C         138.1411  140.1943  164.3677 C.ar    1  UNL1        0.0116
     24 N         137.6530  138.5952  167.9669 N.1     1  UNL1       -0.1908
     25 C         138.0454  138.7541  166.5280 C.1     1  UNL1        0.1004
     26 C         145.2084  140.8135  164.1498 C.3     1  UNL1        0.1202
     27 C         145.4710  142.2897  164.1971 C.3     1  UNL1        0.2228
     28 O         144.5871  143.1828  165.0162 O.3     1  UNL1       -0.4717
     29 C         143.1902  143.4803  164.5577 C.ar    1  UNL1        0.1659
     30 C         142.0439  142.6534  165.0601 C.ar    1  UNL1        0.0399
     31 C         140.6470  142.9510  164.6016 C.ar    1  UNL1        0.0135
     32 C         140.3964  144.0753  163.6408 C.ar    1  UNL1        0.0709
     33 C         141.5427  144.9021  163.1385 C.ar    1  UNL1        0.0430
     34 C         142.9395  144.6046  163.5969 C.ar    1  UNL1        0.1745
     35 F         144.0858  145.4315  163.0946 F       1  UNL1       -0.2009
     36 C         138.9995  144.3727  163.1824 C.1     1  UNL1        0.1005
     37 N         137.6025  144.6702  162.7240 N.1     1  UNL1       -0.1908
@<TRIPOS>BOND
     1    24    25    3
     2    25    18    1
     3    18    19   ar
     4    19    20   ar
     5    20    21   ar
     6    21    15    1
     7    15    16    2
     8    15    17    2
     9    15    13    1
    10    13    12    1
    11    12    11    1
    12    11    10    1
    13    10     1    1
    14     1     2    1
    15     2     3    1
    16     3     4    1
    17     4     5    1
    18     5    26    1
    19    26    27    1
    20    27    28    1
    21    28    29    1
    22    29    30   ar
    23    30    31   ar
    24    31    32   ar
    25    32    36    1
    26    36    37    3
    27    32    33   ar
    28    33    34   ar
    29    34    35    1
    30     5     6    1
    31     6     7    1
    32     7     8    1
    33     7     9    1
    34    21    22   ar
    35    22    23   ar
    36    23    18   ar
    37     8     1    1
    38     9     3    1
    39    34    29   ar
    40    13    14    1
@<TRIPOS>MOLECULE
*****
 37 40 0 0 0
SMALL
GASTEIGER

@<TRIPOS>ATOM
      1 N         140.3381  139.6178  160.0027 N.3     1  UNL1       -0.2685
      2 C         140.6341  141.0452  159.6494 C.3     1  UNL1        0.1035
      3 C         139.9781  142.1581  160.4118 C.3     1  UNL1        0.1470
      4 C         139.3221  143.2710  161.1742 C.3     1  UNL1        0.1036
      5 N         138.3702  142.9564  162.2899 N.3     1  UNL1       -0.2653
      6 C         138.0742  141.5289  162.6432 C.3     1  UNL1        0.1036
      7 C         138.7302  140.4161  161.8808 C.3     1  UNL1        0.1470
      8 C         139.3862  139.3033  161.1184 C.3     1  UNL1        0.1035
      9 O         139.0262  141.8435  161.5275 O.3     1  UNL1       -0.3530
     10 C         140.9941  138.5049  159.2403 C.3     1  UNL1        0.0737
     11 C         142.4626  138.2470  159.4047 C.3     1  UNL1        0.0362
     12 C         143.0206  137.9259  160.7596 C.3     1  UNL1        0.0929
     13 N         142.1525  137.2703  161.7922 N.3     1  UNL1       -0.1793
     14 H         141.2079  137.2425  161.4081 H       1  UNL1        0.1488
     15 S         142.0440  137.8621  163.1662 S.O2    1  UNL1        0.0602
     16 O         140.9038  136.9375  163.4745 O.2     1  UNL1       -0.1530
     17 O         143.1841  138.7867  162.8579 O.2     1  UNL1       -0.1530
     18 C         141.7187  139.6378  167.2882 C.ar    1  UNL1        0.0685
     19 C         140.5085  139.5661  166.4048 C.ar    1  UNL1        0.0116
     20 C         140.6170  138.9742  165.0308 C.ar    1  UNL1        0.0206
     21 C         141.9355  138.4540  164.5403 C.ar    1  UNL1        0.1220
     22 C         143.1457  138.5257  165.4237 C.ar    1  UNL1        0.0206
     23 C         143.0373  139.1175  166.7976 C.ar    1  UNL1        0.0116
     24 N         141.5017  140.8215  170.0363 N.1     1  UNL1       -0.1908
     25 C         141.6102  140.2297  168.6623 C.1     1  UNL1        0.1004
     26 C         137.7142  144.0692  163.0522 C.3     1  UNL1        0.1202
     27 C         138.1154  144.3446  164.4712 C.3     1  UNL1        0.2228
     28 O         139.4054  145.0528  164.7618 O.3     1  UNL1       -0.4717
     29 C         140.7132  144.3760  164.4765 C.ar    1  UNL1        0.1659
     30 C         141.6149  144.9089  163.4027 C.ar    1  UNL1        0.0399
     31 C         142.9228  144.2321  163.1174 C.ar    1  UNL1        0.0135
     32 C         143.3290  143.0224  163.9059 C.ar    1  UNL1        0.0709
     33 C         142.4273  142.4895  164.9796 C.ar    1  UNL1        0.0430
     34 C         141.1195  143.1663  165.2650 C.ar    1  UNL1        0.1745
     35 F         140.2178  142.6334  166.3388 F       1  UNL1       -0.2009
     36 C         144.6368  142.3456  163.6205 C.1     1  UNL1        0.1005
     37 N         145.9447  141.6688  163.3352 N.1     1  UNL1       -0.1908
@<TRIPOS>BOND
     1    24    25    3
     2    25    18    1
     3    18    19   ar
     4    19    20   ar
     5    20    21   ar
     6    21    15    1
     7    15    16    2
     8    15    17    2
     9    15    13    1
    10    13    12    1
    11    12    11    1
    12    11    10    1
    13    10     1    1
    14     1     2    1
    15     2     3    1
    16     3     4    1
    17     4     5    1
    18     5    26    1
    19    26    27    1
    20    27    28    1
    21    28    29    1
    22    29    30   ar
    23    30    31   ar
    24    31    32   ar
    25    32    36    1
    26    36    37    3
    27    32    33   ar
    28    33    34   ar
    29    34    35    1
    30     5     6    1
    31     6     7    1
    32     7     8    1
    33     7     9    1
    34    21    22   ar
    35    22    23   ar
    36    23    18   ar
    37     8     1    1
    38     9     3    1
    39    34    29   ar
    40    13    14    1
@<TRIPOS>MOLECULE
*****
 37 40 0 0 0
SMALL
GASTEIGER

@<TRIPOS>ATOM
      1 N         138.2523  139.8858  159.3184 N.3     1  UNL1       -0.2685
      2 C         137.4652  139.9064  160.5951 C.3     1  UNL1        0.1035
      3 C         138.0386  139.2959  161.8395 C.3     1  UNL1        0.1470
      4 C         138.6120  138.6855  163.0840 C.3     1  UNL1        0.1036
      5 N         139.9725  138.0545  163.0517 N.3     1  UNL1       -0.2653
      6 C         140.7595  138.0339  161.7748 C.3     1  UNL1        0.1036
      7 C         140.1861  138.6443  160.5304 C.3     1  UNL1        0.1470
      8 C         139.6127  139.2547  159.2860 C.3     1  UNL1        0.1035
      9 O         139.3991  138.6649  161.8072 O.3     1  UNL1       -0.3530
     10 C         137.6789  140.4962  158.0739 C.3     1  UNL1        0.0737
     11 C         137.9046  141.9494  157.7787 C.3     1  UNL1        0.0362
     12 C         138.9308  142.7216  158.5538 C.3     1  UNL1        0.0929
     13 N         138.6152  143.2099  159.9365 N.3     1  UNL1       -0.1793
     14 H         138.1881  144.1305  159.8334 H       1  UNL1        0.1488
     15 S         139.7117  143.3524  160.9500 S.O2    1  UNL1        0.0602
     16 O         140.6326  142.5670  160.0641 O.2     1  UNL1       -0.1530
     17 O         138.7908  144.1379  161.8360 O.2     1  UNL1       -0.1530
     18 C         143.0013  143.7800  163.9908 C.ar    1  UNL1        0.0685
     19 C         143.0757  142.7003  162.9522 C.ar    1  UNL1        0.0116
     20 C         141.9792  142.5578  161.9386 C.ar    1  UNL1        0.0206
     21 C         140.8083  143.4949  161.9636 C.ar    1  UNL1        0.1220
     22 C         140.7339  144.5746  163.0022 C.ar    1  UNL1        0.0206
     23 C         141.8304  144.7172  164.0158 C.ar    1  UNL1        0.0116
     24 N         145.1944  144.0650  166.0179 N.1     1  UNL1       -0.1908
     25 C         144.0978  143.9226  165.0044 C.1     1  UNL1        0.1004
     26 C         140.5459  137.4441  164.2960 C.3     1  UNL1        0.1202
     27 C         141.8118  137.9919  164.8855 C.3     1  UNL1        0.2228
     28 O         142.1405  139.4477  164.7353 O.3     1  UNL1       -0.4717
     29 C         141.7574  140.4180  165.8131 C.ar    1  UNL1        0.1659
     30 C         142.4701  140.3930  167.1327 C.ar    1  UNL1        0.0399
     31 C         142.0869  141.3635  168.2105 C.ar    1  UNL1        0.0135
     32 C         140.9912  142.3588  167.9686 C.ar    1  UNL1        0.0709
     33 C         140.2786  142.3838  166.6489 C.ar    1  UNL1        0.0430
     34 C         140.6616  141.4135  165.5712 C.ar    1  UNL1        0.1745
     35 F         139.9490  141.4385  164.2515 F       1  UNL1       -0.2009
     36 C         140.6081  143.3292  169.0463 C.1     1  UNL1        0.1005
     37 N         140.2251  144.2996  170.1242 N.1     1  UNL1       -0.1908
@<TRIPOS>BOND
     1    24    25    3
     2    25    18    1
     3    18    19   ar
     4    19    20   ar
     5    20    21   ar
     6    21    15    1
     7    15    16    2
     8    15    17    2
     9    15    13    1
    10    13    12    1
    11    12    11    1
    12    11    10    1
    13    10     1    1
    14     1     2    1
    15     2     3    1
    16     3     4    1
    17     4     5    1
    18     5    26    1
    19    26    27    1
    20    27    28    1
    21    28    29    1
    22    29    30   ar
    23    30    31   ar
    24    31    32   ar
    25    32    36    1
    26    36    37    3
    27    32    33   ar
    28    33    34   ar
    29    34    35    1
    30     5     6    1
    31     6     7    1
    32     7     8    1
    33     7     9    1
    34    21    22   ar
    35    22    23   ar
    36    23    18   ar
    37     8     1    1
    38     9     3    1
    39    34    29   ar
    40    13    14    1
@<TRIPOS>MOLECULE
*****
 37 40 0 0 0
SMALL
GASTEIGER

@<TRIPOS>ATOM
      1 N         140.8246  144.1281  160.5886 N.3     1  UNL1       -0.2685
      2 C         142.2491  143.8864  160.9914 C.3     1  UNL1        0.1035
      3 C         142.8757  142.5430  160.7622 C.3     1  UNL1        0.1470
      4 C         143.5024  141.1996  160.5330 C.3     1  UNL1        0.1036
      5 N         142.7045  140.0978  159.9009 N.3     1  UNL1       -0.2653
      6 C         141.2799  140.3395  159.4981 C.3     1  UNL1        0.1036
      7 C         140.6533  141.6829  159.7273 C.3     1  UNL1        0.1470
      8 C         140.0267  143.0263  159.9565 C.3     1  UNL1        0.1035
      9 O         142.0778  141.4413  160.1301 O.3     1  UNL1       -0.3530
     10 C         140.1979  145.4715  160.8178 C.3     1  UNL1        0.0737
     11 C         140.0203  145.9877  162.2149 C.3     1  UNL1        0.0362
     12 C         139.3374  145.1396  163.2467 C.3     1  UNL1        0.0929
     13 N         139.5667  143.6575  163.2705 N.3     1  UNL1       -0.1793
     14 H         138.6560  143.2165  163.1418 H       1  UNL1        0.1488
     15 S         140.1930  143.0147  164.4724 S.O2    1  UNL1        0.0602
     16 O         139.6034  144.0795  165.3490 O.2     1  UNL1       -0.1530
     17 O         140.7825  141.9499  163.5957 O.2     1  UNL1       -0.1530
     18 C         142.0721  141.0863  168.0779 C.ar    1  UNL1        0.0685
     19 C         140.5795  141.1993  167.9802 C.ar    1  UNL1        0.0116
     20 C         139.9532  141.8421  166.7784 C.ar    1  UNL1        0.0206
     21 C         140.8193  142.3719  165.6743 C.ar    1  UNL1        0.1220
     22 C         142.3119  142.2589  165.7720 C.ar    1  UNL1        0.0206
     23 C         142.9382  141.6161  166.9739 C.ar    1  UNL1        0.0116
     24 N         143.3248  139.8007  170.4817 N.1     1  UNL1       -0.1908
     25 C         142.6984  140.4435  169.2798 C.1     1  UNL1        0.1004
     26 C         143.3311  138.7544  159.6717 C.3     1  UNL1        0.1202
     27 C         143.1015  137.6426  160.6522 C.3     1  UNL1        0.2228
     28 O         143.3340  137.8735  162.1159 O.3     1  UNL1       -0.4717
     29 C         142.1670  138.0088  163.0484 C.ar    1  UNL1        0.1659
     30 C         140.7879  137.6486  162.5811 C.ar    1  UNL1        0.0399
     31 C         139.6208  137.7839  163.5137 C.ar    1  UNL1        0.0135
     32 C         139.8328  138.2794  164.9135 C.ar    1  UNL1        0.0709
     33 C         141.2119  138.6396  165.3808 C.ar    1  UNL1        0.0430
     34 C         142.3790  138.5043  164.4483 C.ar    1  UNL1        0.1745
     35 F         143.7581  138.8645  164.9156 F       1  UNL1       -0.2009
     36 C         138.6658  138.4147  165.8461 C.1     1  UNL1        0.1005
     37 N         137.4986  138.5500  166.7786 N.1     1  UNL1       -0.1908
@<TRIPOS>BOND
     1    24    25    3
     2    25    18    1
     3    18    19   ar
     4    19    20   ar
     5    20    21   ar
     6    21    15    1
     7    15    16    2
     8    15    17    2
     9    15    13    1
    10    13    12    1
    11    12    11    1
    12    11    10    1
    13    10     1    1
    14     1     2    1
    15     2     3    1
    16     3     4    1
    17     4     5    1
    18     5    26    1
    19    26    27    1
    20    27    28    1
    21    28    29    1
    22    29    30   ar
    23    30    31   ar
    24    31    32   ar
    25    32    36    1
    26    36    37    3
    27    32    33   ar
    28    33    34   ar
    29    34    35    1
    30     5     6    1
    31     6     7    1
    32     7     8    1
    33     7     9    1
    34    21    22   ar
    35    22    23   ar
    36    23    18   ar
    37     8     1    1
    38     9     3    1
    39    34    29   ar
    40    13    14    1
@<TRIPOS>MOLECULE
*****
 37 40 0 0 0
SMALL
GASTEIGER

@<TRIPOS>ATOM
      1 N         143.3713  138.8280  159.3493 N.3     1  UNL1       -0.2685
      2 C         143.7005  140.2842  159.2037 C.3     1  UNL1        0.1035
      3 C         144.1078  141.0848  160.4050 C.3     1  UNL1        0.1470
      4 C         144.5152  141.8854  161.6063 C.3     1  UNL1        0.1036
      5 N         144.5934  141.2299  162.9532 N.3     1  UNL1       -0.2653
      6 C         144.2642  139.7736  163.0987 C.3     1  UNL1        0.1036
      7 C         143.8569  138.9730  161.8975 C.3     1  UNL1        0.1470
      8 C         143.4495  138.1725  160.6962 C.3     1  UNL1        0.1035
      9 O         144.1860  140.4292  161.7518 O.3     1  UNL1       -0.3530
     10 C         142.9640  138.0273  158.1480 C.3     1  UNL1        0.0737
     11 C         141.6158  138.2410  157.5263 C.3     1  UNL1        0.0362
     12 C         140.4154  138.4663  158.3972 C.3     1  UNL1        0.0929
     13 N         140.3899  139.6200  159.3554 N.3     1  UNL1       -0.1793
     14 H         141.3452  139.9719  159.4181 H       1  UNL1        0.1488
     15 S         139.9104  139.4161  160.7620 S.O2    1  UNL1        0.0602
     16 O         140.3457  140.8082  161.1121 O.2     1  UNL1       -0.1530
     17 O         139.4751  138.0241  160.4119 O.2     1  UNL1       -0.1530
     18 C         138.4720  138.8045  164.9818 C.ar    1  UNL1        0.0685
     19 C         138.9295  137.6306  164.1678 C.ar    1  UNL1        0.0116
     20 C         139.4090  137.8344  162.7612 C.ar    1  UNL1        0.0206
     21 C         139.4309  139.2122  162.1687 C.ar    1  UNL1        0.1220
     22 C         138.9734  140.3861  162.9826 C.ar    1  UNL1        0.0206
     23 C         138.4939  140.1822  164.3892 C.ar    1  UNL1        0.0116
     24 N         137.5130  138.3966  167.7950 N.1     1  UNL1       -0.1908
     25 C         137.9925  138.6005  166.3885 C.1     1  UNL1        0.1004
     26 C         145.0007  142.0305  164.1544 C.3     1  UNL1        0.1202
     27 C         143.9667  142.7776  164.9436 C.3     1  UNL1        0.2228
     28 O         144.0374  142.7987  166.4418 O.3     1  UNL1       -0.4717
     29 C         142.8966  142.2612  167.2540 C.ar    1  UNL1        0.1659
     30 C         141.6230  141.8490  166.5774 C.ar    1  UNL1        0.0399
     31 C         140.4822  141.3115  167.3897 C.ar    1  UNL1        0.0135
     32 C         140.6151  141.1863  168.8786 C.ar    1  UNL1        0.0709
     33 C         141.8888  141.5985  169.5551 C.ar    1  UNL1        0.0430
     34 C         143.0295  142.1360  168.7429 C.ar    1  UNL1        0.1745
     35 F         144.3032  142.5482  169.4195 F       1  UNL1       -0.2009
     36 C         139.4743  140.6488  169.6908 C.1     1  UNL1        0.1005
     37 N         138.3335  140.1114  170.5031 N.1     1  UNL1       -0.1908
@<TRIPOS>BOND
     1    24    25    3
     2    25    18    1
     3    18    19   ar
     4    19    20   ar
     5    20    21   ar
     6    21    15    1
     7    15    16    2
     8    15    17    2
     9    15    13    1
    10    13    12    1
    11    12    11    1
    12    11    10    1
    13    10     1    1
    14     1     2    1
    15     2     3    1
    16     3     4    1
    17     4     5    1
    18     5    26    1
    19    26    27    1
    20    27    28    1
    21    28    29    1
    22    29    30   ar
    23    30    31   ar
    24    31    32   ar
    25    32    36    1
    26    36    37    3
    27    32    33   ar
    28    33    34   ar
    29    34    35    1
    30     5     6    1
    31     6     7    1
    32     7     8    1
    33     7     9    1
    34    21    22   ar
    35    22    23   ar
    36    23    18   ar
    37     8     1    1
    38     9     3    1
    39    34    29   ar
    40    13    14    1
@<TRIPOS>MOLECULE
*****
 37 40 0 0 0
SMALL
GASTEIGER

@<TRIPOS>ATOM
      1 N         139.4435  144.7856  162.9421 N.3     1  UNL1       -0.2685
      2 C         140.2018  144.7084  164.2340 C.3     1  UNL1        0.1035
      3 C         140.0872  143.4884  165.0991 C.3     1  UNL1        0.1470
      4 C         139.9727  142.2684  165.9642 C.3     1  UNL1        0.1036
      5 N         139.0998  141.1256  165.5374 N.3     1  UNL1       -0.2653
      6 C         138.3415  141.2028  164.2455 C.3     1  UNL1        0.1036
      7 C         138.4561  142.4228  163.3804 C.3     1  UNL1        0.1470
      8 C         138.5707  143.6428  162.5153 C.3     1  UNL1        0.1035
      9 O         139.2144  142.3456  164.6723 O.3     1  UNL1       -0.3530
     10 C         139.5581  146.0057  162.0769 C.3     1  UNL1        0.0737
     11 C         140.0414  145.8795  160.6626 C.3     1  UNL1        0.0362
     12 C         141.0926  144.8669  160.3167 C.3     1  UNL1        0.0929
     13 N         142.4046  144.8695  161.0439 N.3     1  UNL1       -0.1793
     14 H         143.1345  144.9323  160.3341 H       1  UNL1        0.1488
     15 S         142.7683  143.7221  161.9388 S.O2    1  UNL1        0.0602
     16 O         143.8643  144.5449  162.5484 O.2     1  UNL1       -0.1530
     17 O         141.6723  142.8992  161.3293 O.2     1  UNL1       -0.1530
     18 C         143.8595  140.2796  164.6237 C.ar    1  UNL1        0.0685
     19 C         142.4871  140.3567  164.0233 C.ar    1  UNL1        0.0116
     20 C         142.1233  141.5041  163.1283 C.ar    1  UNL1        0.0206
     21 C         143.1320  142.5745  162.8338 C.ar    1  UNL1        0.1220
     22 C         144.5045  142.4974  163.4342 C.ar    1  UNL1        0.0206
     23 C         144.8682  141.3500  164.3292 C.ar    1  UNL1        0.0116
     24 N         144.5869  137.9846  166.4136 N.1     1  UNL1       -0.1908
     25 C         144.2232  139.1321  165.5187 C.1     1  UNL1        0.1004
     26 C         138.9853  139.9056  166.4025 C.3     1  UNL1        0.1202
     27 C         138.0830  138.7788  165.9945 C.3     1  UNL1        0.2228
     28 O         138.6553  137.5639  165.3265 O.3     1  UNL1       -0.4717
     29 C         139.4042  137.7014  164.0341 C.ar    1  UNL1        0.1659
     30 C         138.7007  138.2074  162.8098 C.ar    1  UNL1        0.0399
     31 C         139.4497  138.3449  161.5174 C.ar    1  UNL1        0.0135
     32 C         140.9021  137.9764  161.4494 C.ar    1  UNL1        0.0709
     33 C         141.6056  137.4704  162.6737 C.ar    1  UNL1        0.0430
     34 C         140.8567  137.3329  163.9661 C.ar    1  UNL1        0.1745
     35 F         141.5602  136.8269  165.1904 F       1  UNL1       -0.2009
     36 C         141.6510  138.1139  160.1570 C.1     1  UNL1        0.1005
     37 N         142.3999  138.2513  158.8646 N.1     1  UNL1       -0.1908
@<TRIPOS>BOND
     1    24    25    3
     2    25    18    1
     3    18    19   ar
     4    19    20   ar
     5    20    21   ar
     6    21    15    1
     7    15    16    2
     8    15    17    2
     9    15    13    1
    10    13    12    1
    11    12    11    1
    12    11    10    1
    13    10     1    1
    14     1     2    1
    15     2     3    1
    16     3     4    1
    17     4     5    1
    18     5    26    1
    19    26    27    1
    20    27    28    1
    21    28    29    1
    22    29    30   ar
    23    30    31   ar
    24    31    32   ar
    25    32    36    1
    26    36    37    3
    27    32    33   ar
    28    33    34   ar
    29    34    35    1
    30     5     6    1
    31     6     7    1
    32     7     8    1
    33     7     9    1
    34    21    22   ar
    35    22    23   ar
    36    23    18   ar
    37     8     1    1
    38     9     3    1
    39    34    29   ar
    40    13    14    1
@<TRIPOS>MOLECULE
*****
 37 40 0 0 0
SMALL
GASTEIGER

@<TRIPOS>ATOM
      1 N         141.4587  142.2603  160.3128 N.3     1  UNL1       -0.2685
      2 C         140.4617  141.1677  160.5622 C.3     1  UNL1        0.1035
      3 C         140.6755  140.2000  161.6881 C.3     1  UNL1        0.1470
      4 C         140.8894  139.2321  162.8140 C.3     1  UNL1        0.1036
      5 N         142.1003  139.3569  163.6904 N.3     1  UNL1       -0.2653
      6 C         143.0974  140.4495  163.4409 C.3     1  UNL1        0.1036
      7 C         142.8835  141.4173  162.3151 C.3     1  UNL1        0.1470
      8 C         142.6696  142.3850  161.1892 C.3     1  UNL1        0.1035
      9 O         141.8865  140.3247  162.5645 O.3     1  UNL1       -0.3530
     10 C         141.2448  143.2281  159.1869 C.3     1  UNL1        0.0737
     11 C         140.3243  144.3984  159.3685 C.3     1  UNL1        0.0362
     12 C         140.5698  145.3812  160.4749 C.3     1  UNL1        0.0929
     13 N         139.6005  145.4847  161.6148 N.3     1  UNL1       -0.1793
     14 H         139.9425  146.2265  162.2257 H       1  UNL1        0.1488
     15 S         139.3376  144.2926  162.4864 S.O2    1  UNL1        0.0602
     16 O         140.5941  144.5773  163.2546 O.2     1  UNL1       -0.1530
     17 O         138.0811  144.0080  161.7182 O.2     1  UNL1       -0.1530
     18 C         138.5490  140.7162  165.1012 C.ar    1  UNL1        0.0685
     19 C         137.6249  141.0310  163.9624 C.ar    1  UNL1        0.0116
     20 C         137.8877  142.2231  163.0908 C.ar    1  UNL1        0.0206
     21 C         139.0747  143.1004  163.3580 C.ar    1  UNL1        0.1220
     22 C         139.9988  142.7856  164.4969 C.ar    1  UNL1        0.0206
     23 C         139.7359  141.5935  165.3684 C.ar    1  UNL1        0.0116
     24 N         138.0232  138.3319  166.8444 N.1     1  UNL1       -0.1908
     25 C         138.2861  139.5240  165.9728 C.1     1  UNL1        0.1004
     26 C         142.3142  138.3891  164.8163 C.3     1  UNL1        0.1202
     27 C         143.3523  138.6720  165.8615 C.3     1  UNL1        0.2228
     28 O         142.9714  138.6863  167.3122 O.3     1  UNL1       -0.4717
     29 C         142.3720  139.9206  167.9181 C.ar    1  UNL1        0.1659
     30 C         141.3943  139.8019  169.0495 C.ar    1  UNL1        0.0399
     31 C         140.7950  141.0363  169.6554 C.ar    1  UNL1        0.0135
     32 C         141.1733  142.3893  169.1299 C.ar    1  UNL1        0.0709
     33 C         142.1510  142.5080  167.9985 C.ar    1  UNL1        0.0430
     34 C         142.7503  141.2737  167.3926 C.ar    1  UNL1        0.1745
     35 F         143.7280  141.3924  166.2613 F       1  UNL1       -0.2009
     36 C         140.5739  143.6236  169.7358 C.1     1  UNL1        0.1005
     37 N         139.9744  144.8580  170.3417 N.1     1  UNL1       -0.1908
@<TRIPOS>BOND
     1    24    25    3
     2    25    18    1
     3    18    19   ar
     4    19    20   ar
     5    20    21   ar
     6    21    15    1
     7    15    16    2
     8    15    17    2
     9    15    13    1
    10    13    12    1
    11    12    11    1
    12    11    10    1
    13    10     1    1
    14     1     2    1
    15     2     3    1
    16     3     4    1
    17     4     5    1
    18     5    26    1
    19    26    27    1
    20    27    28    1
    21    28    29    1
    22    29    30   ar
    23    30    31   ar
    24    31    32   ar
    25    32    36    1
    26    36    37    3
    27    32    33   ar
    28    33    34   ar
    29    34    35    1
    30     5     6    1
    31     6     7    1
    32     7     8    1
    33     7     9    1
    34    21    22   ar
    35    22    23   ar
    36    23    18   ar
    37     8     1    1
    38     9     3    1
    39    34    29   ar
    40    13    14    1
@<TRIPOS>MOLECULE
*****
 37 40 0 0 0
SMALL
GASTEIGER

@<TRIPOS>ATOM
      1 N         141.3263  139.4425  159.2480 N.3     1  UNL1       -0.2685
      2 C         141.8997  140.8045  158.9907 C.3     1  UNL1        0.1035
      3 C         142.9744  141.3470  159.8855 C.3     1  UNL1        0.1470
      4 C         144.0491  141.8896  160.7803 C.3     1  UNL1        0.1036
      5 N         144.5504  141.0702  161.9324 N.3     1  UNL1       -0.2653
      6 C         143.9769  139.7082  162.1896 C.3     1  UNL1        0.1036
      7 C         142.9022  139.1656  161.2949 C.3     1  UNL1        0.1470
      8 C         141.8275  138.6231  160.4001 C.3     1  UNL1        0.1035
      9 O         143.4756  140.5276  161.0376 O.3     1  UNL1       -0.3530
     10 C         140.2515  138.8999  158.3532 C.3     1  UNL1        0.0737
     11 C         139.1134  139.7802  157.9291 C.3     1  UNL1        0.0362
     12 C         138.2525  140.4432  158.9632 C.3     1  UNL1        0.0929
     13 N         137.4800  139.6100  159.9424 N.3     1  UNL1       -0.1793
     14 H         136.5050  139.9014  159.8723 H       1  UNL1        0.1488
     15 S         137.8374  139.6402  161.3988 S.O2    1  UNL1        0.0602
     16 O         138.2210  138.1915  161.3348 O.2     1  UNL1       -0.1530
     17 O         137.4538  141.0889  161.4629 O.2     1  UNL1       -0.1530
     18 C         138.9096  139.7309  165.7683 C.ar    1  UNL1        0.0685
     19 C         138.1117  140.8505  165.1684 C.ar    1  UNL1        0.0116
     20 C         137.7543  140.8203  163.7120 C.ar    1  UNL1        0.0206
     21 C         138.1948  139.6705  162.8554 C.ar    1  UNL1        0.1220
     22 C         138.9928  138.5509  163.4552 C.ar    1  UNL1        0.0206
     23 C         139.3502  138.5811  164.9117 C.ar    1  UNL1        0.0116
     24 N         139.6244  139.7915  168.6813 N.1     1  UNL1       -0.1908
     25 C         139.2670  139.7612  167.2248 C.1     1  UNL1        0.1004
     26 C         145.6251  141.6127  162.8271 C.3     1  UNL1        0.1202
     27 C         145.3540  141.8124  164.2889 C.3     1  UNL1        0.2228
     28 O         144.7084  143.0795  164.7657 O.3     1  UNL1       -0.4717
     29 C         143.2942  143.3933  164.3762 C.ar    1  UNL1        0.1659
     30 C         142.2584  142.3084  164.3750 C.ar    1  UNL1        0.0399
     31 C         140.8441  142.6221  163.9855 C.ar    1  UNL1        0.0135
     32 C         140.4659  144.0207  163.5973 C.ar    1  UNL1        0.0709
     33 C         141.5017  145.1056  163.5986 C.ar    1  UNL1        0.0430
     34 C         142.9159  144.7919  163.9880 C.ar    1  UNL1        0.1745
     35 F         143.9517  145.8768  163.9893 F       1  UNL1       -0.2009
     36 C         139.0517  144.3345  163.2078 C.1     1  UNL1        0.1005
     37 N         137.6375  144.6482  162.8184 N.1     1  UNL1       -0.1908
@<TRIPOS>BOND
     1    24    25    3
     2    25    18    1
     3    18    19   ar
     4    19    20   ar
     5    20    21   ar
     6    21    15    1
     7    15    16    2
     8    15    17    2
     9    15    13    1
    10    13    12    1
    11    12    11    1
    12    11    10    1
    13    10     1    1
    14     1     2    1
    15     2     3    1
    16     3     4    1
    17     4     5    1
    18     5    26    1
    19    26    27    1
    20    27    28    1
    21    28    29    1
    22    29    30   ar
    23    30    31   ar
    24    31    32   ar
    25    32    36    1
    26    36    37    3
    27    32    33   ar
    28    33    34   ar
    29    34    35    1
    30     5     6    1
    31     6     7    1
    32     7     8    1
    33     7     9    1
    34    21    22   ar
    35    22    23   ar
    36    23    18   ar
    37     8     1    1
    38     9     3    1
    39    34    29   ar
    40    13    14    1
