@<TRIPOS>MOLECULE
*****
 35 38 0 0 0
SMALL
GASTEIGER

@<TRIPOS>ATOM
      1 C         140.2432  137.0443  156.1907 C.3     1  UNL1        0.0437
      2 C         141.3773  137.9180  156.6386 C.3     1  UNL1        0.1368
      3 C         141.7709  137.6929  155.2087 C.3     1  UNL1        0.0437
      4 C         142.6481  138.7135  156.5899 C.3     1  UNL1        0.0643
      5 C         143.1314  139.4307  157.8155 C.3     1  UNL1        0.1020
      6 C         142.3440  139.3525  159.0897 C.ar    1  UNL1        0.0488
      7 C         142.8273  140.0697  160.3153 C.ar    1  UNL1        0.0034
      8 C         142.0399  139.9914  161.5896 C.ar    1  UNL1        0.0177
      9 C         140.7691  139.1959  161.6383 C.ar    1  UNL1        0.0851
     10 N         140.2857  138.4787  160.4128 N.ar    1  UNL1       -0.2119
     11 C         141.0732  138.5570  159.1384 C.ar    1  UNL1        0.2219
     12 O         140.5899  137.8398  157.9129 O.3     1  UNL1       -0.4676
     13 C         139.9817  139.1176  162.9126 C.ar    1  UNL1        0.0284
     14 C         138.9726  140.1790  163.2371 C.ar    1  UNL1        0.0032
     15 C         138.1852  140.1007  164.5115 C.ar    1  UNL1        0.0115
     16 C         138.4068  138.9611  165.4612 C.ar    1  UNL1        0.0585
     17 CL        137.6194  138.8828  166.7355 Cl      1  UNL1       -0.0822
     18 C         139.4158  137.8997  165.1367 C.ar    1  UNL1        0.0228
     19 C         140.2032  137.9779  163.8624 C.ar    1  UNL1        0.0599
     20 CL        141.2122  136.9165  163.5378 Cl      1  UNL1       -0.0822
     21 C         142.5232  140.7086  162.8151 C.ar    1  UNL1        0.0015
     22 C         143.4200  140.0058  163.7907 C.ar    1  UNL1        0.0009
     23 C         143.9033  140.7230  165.0163 C.ar    1  UNL1        0.0114
     24 C         143.4898  142.1431  165.2662 C.ar    1  UNL1        0.0577
     25 CL        143.9731  142.8603  166.4918 Cl      1  UNL1       -0.0822
     26 C         142.5930  142.8459  164.2907 C.ar    1  UNL1        0.0114
     27 C         142.1097  142.1287  163.0651 C.ar    1  UNL1        0.0009
     28 N         144.4022  140.2262  157.7667 N.am    1  UNL1       -0.3018
     29 C         144.3524  141.7049  157.5194 C.2     1  UNL1        0.2252
     30 O         143.0318  142.3880  157.3209 O.2     1  UNL1       -0.2750
     31 H         145.2689  139.7779  157.8970 H       1  UNL1        0.1497
     32 C         145.6232  142.5004  157.4707 C.3     1  UNL1        0.1167
     33 C         146.6876  142.1530  156.4726 C.3     1  UNL1        0.1467
     34 O         146.7417  140.7749  155.8828 O.3     1  UNL1       -0.3815
     35 H         146.9558  140.1337  156.5784 H       1  UNL1        0.2105
@<TRIPOS>BOND
     1     1     2    1
     2     2     3    1
     3     2     4    1
     4     4     5    1
     5     5    28    1
     6    28    29   am
     7    29    30    2
     8    29    32    1
     9    32    33    1
    10    33    34    1
    11     5     6    1
    12     6     7   ar
    13     7     8   ar
    14     8    21    1
    15    21    22   ar
    16    22    23   ar
    17    23    24   ar
    18    24    25    1
    19    24    26   ar
    20    26    27   ar
    21     8     9   ar
    22     9    13    1
    23    13    14   ar
    24    14    15   ar
    25    15    16   ar
    26    16    17    1
    27    16    18   ar
    28    18    19   ar
    29    19    20    1
    30     9    10   ar
    31    10    11   ar
    32    11    12    1
    33    12     2    1
    34    11     6   ar
    35    27    21   ar
    36    19    13   ar
    37    28    31    1
    38    34    35    1
@<TRIPOS>MOLECULE
*****
 35 38 0 0 0
SMALL
GASTEIGER

@<TRIPOS>ATOM
      1 C         137.7886  138.1176  154.2298 C.3     1  UNL1        0.0437
      2 C         139.0844  137.6326  154.8092 C.3     1  UNL1        0.1368
      3 C         139.1432  136.9821  153.4588 C.3     1  UNL1        0.0437
      4 C         140.4006  136.9217  154.9196 C.3     1  UNL1        0.0643
      5 C         141.2080  137.0296  156.1791 C.3     1  UNL1        0.1020
      6 C         140.6992  137.8485  157.3283 C.ar    1  UNL1        0.0488
      7 C         141.5066  137.9564  158.5878 C.ar    1  UNL1        0.0034
      8 C         140.9978  138.7753  159.7370 C.ar    1  UNL1        0.0177
      9 C         139.6816  139.4863  159.6266 C.ar    1  UNL1        0.0851
     10 N         138.8742  139.3783  158.3670 N.ar    1  UNL1       -0.2119
     11 C         139.3830  138.5594  157.2179 C.ar    1  UNL1        0.2219
     12 O         138.5756  138.4515  155.9583 O.3     1  UNL1       -0.4676
     13 C         139.1728  140.3051  160.7757 C.ar    1  UNL1        0.0284
     14 C         139.5498  141.7524  160.8903 C.ar    1  UNL1        0.0032
     15 C         139.0410  142.5713  162.0395 C.ar    1  UNL1        0.0115
     16 C         138.1552  141.9428  163.0741 C.ar    1  UNL1        0.0585
     17 CL        137.6464  142.7617  164.2232 Cl      1  UNL1       -0.0822
     18 C         137.7782  140.4955  162.9595 C.ar    1  UNL1        0.0228
     19 C         138.2870  139.6767  161.8104 C.ar    1  UNL1        0.0599
     20 CL        137.9100  138.2293  161.6958 Cl      1  UNL1       -0.0822
     21 C         141.8052  138.8832  160.9965 C.ar    1  UNL1        0.0015
     22 C         142.8499  139.9516  161.1285 C.ar    1  UNL1        0.0009
     23 C         143.6573  140.0595  162.3880 C.ar    1  UNL1        0.0114
     24 C         143.4200  139.0991  163.5156 C.ar    1  UNL1        0.0577
     25 CL        144.2274  139.2071  164.7752 Cl      1  UNL1       -0.0822
     26 C         142.3754  138.0309  163.3836 C.ar    1  UNL1        0.0114
     27 C         141.5680  137.9229  162.1241 C.ar    1  UNL1        0.0009
     28 N         142.5242  136.3186  156.2895 N.am    1  UNL1       -0.3018
     29 C         142.6016  134.8412  156.0426 C.2     1  UNL1        0.2252
     30 O         141.3628  134.0746  155.6854 O.2     1  UNL1       -0.2750
     31 H         143.3373  136.8218  156.5240 H       1  UNL1        0.1497
     32 C         143.9178  134.1302  156.1530 C.3     1  UNL1        0.1167
     33 C         144.0263  132.8749  156.9669 C.3     1  UNL1        0.1467
     34 O         142.7990  132.2736  157.5851 O.3     1  UNL1       -0.3815
     35 H         142.4492  132.8754  158.2606 H       1  UNL1        0.2105
@<TRIPOS>BOND
     1     1     2    1
     2     2     3    1
     3     2     4    1
     4     4     5    1
     5     5    28    1
     6    28    29   am
     7    29    30    2
     8    29    32    1
     9    32    33    1
    10    33    34    1
    11     5     6    1
    12     6     7   ar
    13     7     8   ar
    14     8    21    1
    15    21    22   ar
    16    22    23   ar
    17    23    24   ar
    18    24    25    1
    19    24    26   ar
    20    26    27   ar
    21     8     9   ar
    22     9    13    1
    23    13    14   ar
    24    14    15   ar
    25    15    16   ar
    26    16    17    1
    27    16    18   ar
    28    18    19   ar
    29    19    20    1
    30     9    10   ar
    31    10    11   ar
    32    11    12    1
    33    12     2    1
    34    11     6   ar
    35    27    21   ar
    36    19    13   ar
    37    28    31    1
    38    34    35    1
@<TRIPOS>MOLECULE
*****
 35 38 0 0 0
SMALL
GASTEIGER

@<TRIPOS>ATOM
      1 C         146.2802  142.7544  154.9781 C.3     1  UNL1        0.0437
      2 C         145.3245  141.6298  155.2465 C.3     1  UNL1        0.1368
      3 C         145.5199  141.4587  153.7691 C.3     1  UNL1        0.0437
      4 C         144.4367  140.4459  155.0018 C.3     1  UNL1        0.0643
      5 C         143.6853  139.8236  156.1412 C.3     1  UNL1        0.1020
      6 C         143.8219  140.3853  157.5253 C.ar    1  UNL1        0.0488
      7 C         143.0705  139.7630  158.6647 C.ar    1  UNL1        0.0034
      8 C         143.2070  140.3247  160.0488 C.ar    1  UNL1        0.0177
      9 C         144.0949  141.5087  160.2936 C.ar    1  UNL1        0.0851
     10 N         144.8462  142.1310  159.1542 N.ar    1  UNL1       -0.2119
     11 C         144.7097  141.5692  157.7700 C.ar    1  UNL1        0.2219
     12 O         145.4610  142.1915  156.6306 O.3     1  UNL1       -0.4676
     13 C         144.2314  142.0704  161.6777 C.ar    1  UNL1        0.0284
     14 C         145.2155  141.4696  162.6373 C.ar    1  UNL1        0.0032
     15 C         145.3519  142.0313  164.0214 C.ar    1  UNL1        0.0115
     16 C         144.5044  143.1938  164.4460 C.ar    1  UNL1        0.0585
     17 CL        144.6409  143.7555  165.8301 Cl      1  UNL1       -0.0822
     18 C         143.5204  143.7946  163.4865 C.ar    1  UNL1        0.0228
     19 C         143.3839  143.2329  162.1023 C.ar    1  UNL1        0.0599
     20 CL        142.3999  143.8337  161.1428 Cl      1  UNL1       -0.0822
     21 C         142.4557  139.7024  161.1883 C.ar    1  UNL1        0.0015
     22 C         141.1192  140.2499  161.5933 C.ar    1  UNL1        0.0009
     23 C         140.3679  139.6276  162.7327 C.ar    1  UNL1        0.0114
     24 C         140.9531  138.4578  163.4671 C.ar    1  UNL1        0.0577
     25 CL        140.2018  137.8355  164.6065 Cl      1  UNL1       -0.0822
     26 C         142.2895  137.9104  163.0620 C.ar    1  UNL1        0.0114
     27 C         143.0409  138.5327  161.9226 C.ar    1  UNL1        0.0009
     28 N         142.7975  138.6395  155.8964 N.am    1  UNL1       -0.3018
     29 C         143.4005  137.2933  155.6248 C.2     1  UNL1        0.2252
     30 O         144.8915  137.1310  155.5978 O.2     1  UNL1       -0.2750
     31 H         141.8189  138.7461  155.9141 H       1  UNL1        0.1497
     32 C         142.5127  136.1093  155.3800 C.3     1  UNL1        0.1167
     33 C         142.7764  134.8146  156.0900 C.3     1  UNL1        0.1467
     34 O         144.1870  134.3740  156.3472 O.3     1  UNL1       -0.3815
     35 H         144.6268  134.1886  155.5027 H       1  UNL1        0.2105
@<TRIPOS>BOND
     1     1     2    1
     2     2     3    1
     3     2     4    1
     4     4     5    1
     5     5    28    1
     6    28    29   am
     7    29    30    2
     8    29    32    1
     9    32    33    1
    10    33    34    1
    11     5     6    1
    12     6     7   ar
    13     7     8   ar
    14     8    21    1
    15    21    22   ar
    16    22    23   ar
    17    23    24   ar
    18    24    25    1
    19    24    26   ar
    20    26    27   ar
    21     8     9   ar
    22     9    13    1
    23    13    14   ar
    24    14    15   ar
    25    15    16   ar
    26    16    17    1
    27    16    18   ar
    28    18    19   ar
    29    19    20    1
    30     9    10   ar
    31    10    11   ar
    32    11    12    1
    33    12     2    1
    34    11     6   ar
    35    27    21   ar
    36    19    13   ar
    37    28    31    1
    38    34    35    1
@<TRIPOS>MOLECULE
*****
 35 38 0 0 0
SMALL
GASTEIGER

@<TRIPOS>ATOM
      1 C         136.6854  143.2539  155.3094 C.3     1  UNL1        0.0437
      2 C         137.3857  141.9940  155.7243 C.3     1  UNL1        0.1368
      3 C         137.1358  141.6886  154.2771 C.3     1  UNL1        0.0437
      4 C         137.9992  140.6280  155.6367 C.3     1  UNL1        0.0643
      5 C         138.6194  140.0050  156.8521 C.3     1  UNL1        0.1020
      6 C         138.6260  140.7480  158.1551 C.ar    1  UNL1        0.0488
      7 C         139.2462  140.1249  159.3706 C.ar    1  UNL1        0.0034
      8 C         139.2529  140.8679  160.6736 C.ar    1  UNL1        0.0177
      9 C         138.6394  142.2339  160.7613 C.ar    1  UNL1        0.0851
     10 N         138.0192  142.8569  159.5459 N.ar    1  UNL1       -0.2119
     11 C         138.0125  142.1139  158.2428 C.ar    1  UNL1        0.2219
     12 O         137.3924  142.7369  157.0274 O.3     1  UNL1       -0.4676
     13 C         138.6461  142.9769  162.0643 C.ar    1  UNL1        0.0284
     14 C         137.5903  142.6973  163.0925 C.ar    1  UNL1        0.0032
     15 C         137.5970  143.4403  164.3956 C.ar    1  UNL1        0.0115
     16 C         138.6595  144.4628  164.6704 C.ar    1  UNL1        0.0585
     17 CL        138.6662  145.2058  165.9734 Cl      1  UNL1       -0.0822
     18 C         139.7152  144.7424  163.6422 C.ar    1  UNL1        0.0228
     19 C         139.7086  143.9995  162.3392 C.ar    1  UNL1        0.0599
     20 CL        140.7643  144.2790  161.3110 Cl      1  UNL1       -0.0822
     21 C         139.8731  140.2449  161.8890 C.ar    1  UNL1        0.0015
     22 C         139.0752  139.2990  162.7369 C.ar    1  UNL1        0.0009
     23 C         139.6954  138.6760  163.9523 C.ar    1  UNL1        0.0114
     24 C         141.1135  138.9989  164.3198 C.ar    1  UNL1        0.0577
     25 CL        141.7337  138.3759  165.5352 Cl      1  UNL1       -0.0822
     26 C         141.9113  139.9447  163.4719 C.ar    1  UNL1        0.0114
     27 C         141.2911  140.5677  162.2565 C.ar    1  UNL1        0.0009
     28 N         139.2329  138.6390  156.7644 N.am    1  UNL1       -0.3018
     29 C         140.6697  138.4866  156.3618 C.2     1  UNL1        0.2252
     30 O         141.4931  139.7002  156.0468 O.2     1  UNL1       -0.2750
     31 H         138.6925  137.8425  156.9712 H       1  UNL1        0.1497
     32 C         141.2833  137.1205  156.2741 C.3     1  UNL1        0.1167
     33 C         142.5330  136.8089  157.0429 C.3     1  UNL1        0.1467
     34 O         143.3492  137.9218  157.6305 O.3     1  UNL1       -0.3815
     35 H         143.7275  138.4575  156.9158 H       1  UNL1        0.2105
@<TRIPOS>BOND
     1     1     2    1
     2     2     3    1
     3     2     4    1
     4     4     5    1
     5     5    28    1
     6    28    29   am
     7    29    30    2
     8    29    32    1
     9    32    33    1
    10    33    34    1
    11     5     6    1
    12     6     7   ar
    13     7     8   ar
    14     8    21    1
    15    21    22   ar
    16    22    23   ar
    17    23    24   ar
    18    24    25    1
    19    24    26   ar
    20    26    27   ar
    21     8     9   ar
    22     9    13    1
    23    13    14   ar
    24    14    15   ar
    25    15    16   ar
    26    16    17    1
    27    16    18   ar
    28    18    19   ar
    29    19    20    1
    30     9    10   ar
    31    10    11   ar
    32    11    12    1
    33    12     2    1
    34    11     6   ar
    35    27    21   ar
    36    19    13   ar
    37    28    31    1
    38    34    35    1
@<TRIPOS>MOLECULE
*****
 35 38 0 0 0
SMALL
GASTEIGER

@<TRIPOS>ATOM
      1 C         143.8727  135.7794  155.9778 C.3     1  UNL1        0.0437
      2 C         142.7311  136.7524  155.9906 C.3     1  UNL1        0.1368
      3 C         142.7666  136.4116  154.5302 C.3     1  UNL1        0.0437
      4 C         141.6019  137.6071  155.4962 C.3     1  UNL1        0.0643
      5 C         140.8337  138.4646  156.4577 C.3     1  UNL1        0.1020
      6 C         141.1947  138.4675  157.9136 C.ar    1  UNL1        0.0488
      7 C         140.4265  139.3251  158.8751 C.ar    1  UNL1        0.0034
      8 C         140.7875  139.3280  160.3310 C.ar    1  UNL1        0.0177
      9 C         141.9168  138.4733  160.8254 C.ar    1  UNL1        0.0851
     10 N         142.6850  137.6158  159.8639 N.ar    1  UNL1       -0.2119
     11 C         142.3239  137.6129  158.4080 C.ar    1  UNL1        0.2219
     12 O         143.0921  136.7554  157.4465 O.3     1  UNL1       -0.4676
     13 C         142.2778  138.4762  162.2813 C.ar    1  UNL1        0.0284
     14 C         141.4952  137.6399  163.2498 C.ar    1  UNL1        0.0032
     15 C         141.8562  137.6428  164.7057 C.ar    1  UNL1        0.0115
     16 C         142.9999  138.4821  165.1931 C.ar    1  UNL1        0.0585
     17 CL        143.3609  138.4850  166.6490 Cl      1  UNL1       -0.0822
     18 C         143.7826  139.3185  164.2246 C.ar    1  UNL1        0.0228
     19 C         143.4215  139.3155  162.7687 C.ar    1  UNL1        0.0599
     20 CL        144.2042  140.1519  161.8003 Cl      1  UNL1       -0.0822
     21 C         140.0193  140.1855  161.2925 C.ar    1  UNL1        0.0015
     22 C         138.7362  139.6832  161.8853 C.ar    1  UNL1        0.0009
     23 C         137.9680  140.5408  162.8468 C.ar    1  UNL1        0.0114
     24 C         138.4829  141.9006  163.2155 C.ar    1  UNL1        0.0577
     25 CL        137.7147  142.7581  164.1770 Cl      1  UNL1       -0.0822
     26 C         139.7660  142.4028  162.6226 C.ar    1  UNL1        0.0114
     27 C         140.5342  141.5453  161.6611 C.ar    1  UNL1        0.0009
     28 N         139.7045  139.3193  155.9633 N.am    1  UNL1       -0.3018
     29 C         138.4491  138.6794  155.4490 C.2     1  UNL1        0.2252
     30 O         138.3229  137.1848  155.4291 O.2     1  UNL1       -0.2750
     31 H         139.7873  140.3002  155.9763 H       1  UNL1        0.1497
     32 C         137.3198  139.5340  154.9545 C.3     1  UNL1        0.1167
     33 C         136.8003  140.6555  155.8043 C.3     1  UNL1        0.1467
     34 O         136.9964  140.6229  157.2911 O.3     1  UNL1       -0.3815
     35 H         136.4906  139.8859  157.6678 H       1  UNL1        0.2105
@<TRIPOS>BOND
     1     1     2    1
     2     2     3    1
     3     2     4    1
     4     4     5    1
     5     5    28    1
     6    28    29   am
     7    29    30    2
     8    29    32    1
     9    32    33    1
    10    33    34    1
    11     5     6    1
    12     6     7   ar
    13     7     8   ar
    14     8    21    1
    15    21    22   ar
    16    22    23   ar
    17    23    24   ar
    18    24    25    1
    19    24    26   ar
    20    26    27   ar
    21     8     9   ar
    22     9    13    1
    23    13    14   ar
    24    14    15   ar
    25    15    16   ar
    26    16    17    1
    27    16    18   ar
    28    18    19   ar
    29    19    20    1
    30     9    10   ar
    31    10    11   ar
    32    11    12    1
    33    12     2    1
    34    11     6   ar
    35    27    21   ar
    36    19    13   ar
    37    28    31    1
    38    34    35    1
@<TRIPOS>MOLECULE
*****
 35 38 0 0 0
SMALL
GASTEIGER

@<TRIPOS>ATOM
      1 C         138.1358  136.9646  165.8236 C.3     1  UNL1        0.0437
      2 C         138.4412  138.4135  165.5838 C.3     1  UNL1        0.1368
      3 C         137.9024  138.4888  166.9817 C.3     1  UNL1        0.0437
      4 C         138.5595  139.8885  165.8295 C.3     1  UNL1        0.0643
      5 C         139.1106  140.7850  164.7605 C.3     1  UNL1        0.1020
      6 C         139.5433  140.2065  163.4460 C.ar    1  UNL1        0.0488
      7 C         140.0943  141.1031  162.3770 C.ar    1  UNL1        0.0034
      8 C         140.5270  140.5246  161.0625 C.ar    1  UNL1        0.0177
      9 C         140.4087  139.0496  160.8168 C.ar    1  UNL1        0.0851
     10 N         139.8576  138.1531  161.8857 N.ar    1  UNL1       -0.2119
     11 C         139.4249  138.7316  163.2003 C.ar    1  UNL1        0.2219
     12 O         138.8739  137.8350  164.2693 O.3     1  UNL1       -0.4676
     13 C         140.8413  138.4711  159.5022 C.ar    1  UNL1        0.0284
     14 C         139.8536  138.3339  158.3817 C.ar    1  UNL1        0.0032
     15 C         140.2864  137.7554  157.0671 C.ar    1  UNL1        0.0115
     16 C         141.7068  137.3142  156.8730 C.ar    1  UNL1        0.0585
     17 CL        142.1395  136.7358  155.5585 Cl      1  UNL1       -0.0822
     18 C         142.6945  137.4515  157.9935 C.ar    1  UNL1        0.0228
     19 C         142.2618  138.0300  159.3081 C.ar    1  UNL1        0.0599
     20 CL        143.2496  138.1673  160.4286 Cl      1  UNL1       -0.0822
     21 C         141.0780  141.4212  159.9936 C.ar    1  UNL1        0.0015
     22 C         140.1621  142.0061  158.9596 C.ar    1  UNL1        0.0009
     23 C         140.7131  142.9027  157.8907 C.ar    1  UNL1        0.0114
     24 C         142.1800  143.2143  157.8557 C.ar    1  UNL1        0.0577
     25 CL        142.7311  144.1108  156.7868 Cl      1  UNL1       -0.0822
     26 C         143.0958  142.6293  158.8896 C.ar    1  UNL1        0.0114
     27 C         142.5448  141.7328  159.9586 C.ar    1  UNL1        0.0009
     28 N         139.2289  142.2600  165.0062 N.am    1  UNL1       -0.3018
     29 C         138.2392  143.2046  164.3912 C.2     1  UNL1        0.2252
     30 O         137.1311  142.6742  163.5305 O.2     1  UNL1       -0.2750
     31 H         139.9561  142.6082  165.5712 H       1  UNL1        0.1497
     32 C         138.3575  144.6796  164.6369 C.3     1  UNL1        0.1167
     33 C         138.5570  145.1940  166.0317 C.3     1  UNL1        0.1467
     34 O         137.4844  146.0094  166.6909 O.3     1  UNL1       -0.3815
     35 H         137.3831  146.8515  166.2203 H       1  UNL1        0.2105
@<TRIPOS>BOND
     1     1     2    1
     2     2     3    1
     3     2     4    1
     4     4     5    1
     5     5    28    1
     6    28    29   am
     7    29    30    2
     8    29    32    1
     9    32    33    1
    10    33    34    1
    11     5     6    1
    12     6     7   ar
    13     7     8   ar
    14     8    21    1
    15    21    22   ar
    16    22    23   ar
    17    23    24   ar
    18    24    25    1
    19    24    26   ar
    20    26    27   ar
    21     8     9   ar
    22     9    13    1
    23    13    14   ar
    24    14    15   ar
    25    15    16   ar
    26    16    17    1
    27    16    18   ar
    28    18    19   ar
    29    19    20    1
    30     9    10   ar
    31    10    11   ar
    32    11    12    1
    33    12     2    1
    34    11     6   ar
    35    27    21   ar
    36    19    13   ar
    37    28    31    1
    38    34    35    1
@<TRIPOS>MOLECULE
*****
 35 38 0 0 0
SMALL
GASTEIGER

@<TRIPOS>ATOM
      1 C         135.0508  139.9937  154.8488 C.3     1  UNL1        0.0437
      2 C         135.8866  141.2108  155.1138 C.3     1  UNL1        0.1368
      3 C         135.3200  141.5709  153.7724 C.3     1  UNL1        0.0437
      4 C         136.5256  142.5529  154.9130 C.3     1  UNL1        0.0643
      5 C         137.4409  143.1122  155.9616 C.3     1  UNL1        0.1020
      6 C         137.7172  142.3294  157.2109 C.ar    1  UNL1        0.0488
      7 C         138.6325  142.8887  158.2594 C.ar    1  UNL1        0.0034
      8 C         138.9088  142.1059  159.5087 C.ar    1  UNL1        0.0177
      9 C         138.2697  140.7637  159.7096 C.ar    1  UNL1        0.0851
     10 N         137.3544  140.2044  158.6611 N.ar    1  UNL1       -0.2119
     11 C         137.0782  140.9873  157.4117 C.ar    1  UNL1        0.2219
     12 O         136.1629  140.4280  156.3632 O.3     1  UNL1       -0.4676
     13 C         138.5460  139.9809  160.9589 C.ar    1  UNL1        0.0284
     14 C         137.8235  140.3170  162.2298 C.ar    1  UNL1        0.0032
     15 C         138.0998  139.5341  163.4791 C.ar    1  UNL1        0.0115
     16 C         139.0986  138.4152  163.4576 C.ar    1  UNL1        0.0585
     17 CL        139.3748  137.6324  164.7069 Cl      1  UNL1       -0.0822
     18 C         139.8210  138.0791  162.1867 C.ar    1  UNL1        0.0228
     19 C         139.5448  138.8619  160.9374 C.ar    1  UNL1        0.0599
     20 CL        140.2672  138.5258  159.6666 Cl      1  UNL1       -0.0822
     21 C         139.8241  142.6652  160.5573 C.ar    1  UNL1        0.0015
     22 C         139.2928  143.6211  161.5840 C.ar    1  UNL1        0.0009
     23 C         140.2081  144.1804  162.6325 C.ar    1  UNL1        0.0114
     24 C         141.6547  143.7838  162.6543 C.ar    1  UNL1        0.0577
     25 CL        142.5700  144.3431  163.7029 Cl      1  UNL1       -0.0822
     26 C         142.1858  142.8279  161.6276 C.ar    1  UNL1        0.0114
     27 C         141.2705  142.2686  160.5791 C.ar    1  UNL1        0.0009
     28 N         138.0800  144.4544  155.7607 N.am    1  UNL1       -0.3018
     29 C         139.4077  144.5571  155.0705 C.2     1  UNL1        0.2252
     30 O         140.0966  143.3177  154.5812 O.2     1  UNL1       -0.2750
     31 H         137.6279  145.2678  156.0819 H       1  UNL1        0.1497
     32 C         140.0468  145.8993  154.8697 C.3     1  UNL1        0.1167
     33 C         139.8407  146.9870  155.8817 C.3     1  UNL1        0.1467
     34 O         138.4752  147.5738  156.0846 O.3     1  UNL1       -0.3815
     35 H         138.2034  148.0454  155.2817 H       1  UNL1        0.2105
@<TRIPOS>BOND
     1     1     2    1
     2     2     3    1
     3     2     4    1
     4     4     5    1
     5     5    28    1
     6    28    29   am
     7    29    30    2
     8    29    32    1
     9    32    33    1
    10    33    34    1
    11     5     6    1
    12     6     7   ar
    13     7     8   ar
    14     8    21    1
    15    21    22   ar
    16    22    23   ar
    17    23    24   ar
    18    24    25    1
    19    24    26   ar
    20    26    27   ar
    21     8     9   ar
    22     9    13    1
    23    13    14   ar
    24    14    15   ar
    25    15    16   ar
    26    16    17    1
    27    16    18   ar
    28    18    19   ar
    29    19    20    1
    30     9    10   ar
    31    10    11   ar
    32    11    12    1
    33    12     2    1
    34    11     6   ar
    35    27    21   ar
    36    19    13   ar
    37    28    31    1
    38    34    35    1
@<TRIPOS>MOLECULE
*****
 35 38 0 0 0
SMALL
GASTEIGER

@<TRIPOS>ATOM
      1 C         135.7384  140.6904  156.3598 C.3     1  UNL1        0.0437
      2 C         137.2375  140.7428  156.3516 C.3     1  UNL1        0.1368
      3 C         136.9594  141.0151  154.9029 C.3     1  UNL1        0.0437
      4 C         138.6400  140.8899  155.8403 C.3     1  UNL1        0.0643
      5 C         139.7999  140.7464  156.7805 C.3     1  UNL1        0.1020
      6 C         139.5574  140.4559  158.2320 C.ar    1  UNL1        0.0488
      7 C         140.7174  140.3125  159.1721 C.ar    1  UNL1        0.0034
      8 C         140.4749  140.0220  160.6236 C.ar    1  UNL1        0.0177
      9 C         139.0723  139.8749  161.1349 C.ar    1  UNL1        0.0851
     10 N         137.9124  140.0184  160.1948 N.ar    1  UNL1       -0.2119
     11 C         138.1549  140.3089  158.7432 C.ar    1  UNL1        0.2219
     12 O         136.9950  140.4523  157.8031 O.3     1  UNL1       -0.4676
     13 C         138.8298  139.5844  162.5864 C.ar    1  UNL1        0.0284
     14 C         138.9504  138.1805  163.1006 C.ar    1  UNL1        0.0032
     15 C         138.7078  137.8900  164.5522 C.ar    1  UNL1        0.0115
     16 C         138.3448  139.0035  165.4894 C.ar    1  UNL1        0.0585
     17 CL        138.1023  138.7130  166.9408 Cl      1  UNL1       -0.0822
     18 C         138.2243  140.4074  164.9751 C.ar    1  UNL1        0.0228
     19 C         138.4668  140.6979  163.5237 C.ar    1  UNL1        0.0599
     20 CL        138.3463  142.1018  163.0094 Cl      1  UNL1       -0.0822
     21 C         141.6348  139.8785  161.5638 C.ar    1  UNL1        0.0015
     22 C         142.3563  138.5677  161.6701 C.ar    1  UNL1        0.0009
     23 C         143.5163  138.4242  162.6103 C.ar    1  UNL1        0.0114
     24 C         143.9547  139.5916  163.4441 C.ar    1  UNL1        0.0577
     25 CL        145.1147  139.4481  164.3843 Cl      1  UNL1       -0.0822
     26 C         143.2332  140.9023  163.3377 C.ar    1  UNL1        0.0114
     27 C         142.0733  141.0458  162.3975 C.ar    1  UNL1        0.0009
     28 N         141.2024  140.8935  156.2692 N.am    1  UNL1       -0.3018
     29 C         141.8700  139.7464  155.5703 C.2     1  UNL1        0.2252
     30 O         141.1352  138.4522  155.3827 O.2     1  UNL1       -0.2750
     31 H         141.6847  141.7428  156.3922 H       1  UNL1        0.1497
     32 C         143.2726  139.8934  155.0589 C.3     1  UNL1        0.1167
     33 C         144.3743  139.0579  155.6403 C.3     1  UNL1        0.1467
     34 O         145.5898  139.7181  156.2205 O.3     1  UNL1       -0.3815
     35 H         146.0815  140.1672  155.5152 H       1  UNL1        0.2105
@<TRIPOS>BOND
     1     1     2    1
     2     2     3    1
     3     2     4    1
     4     4     5    1
     5     5    28    1
     6    28    29   am
     7    29    30    2
     8    29    32    1
     9    32    33    1
    10    33    34    1
    11     5     6    1
    12     6     7   ar
    13     7     8   ar
    14     8    21    1
    15    21    22   ar
    16    22    23   ar
    17    23    24   ar
    18    24    25    1
    19    24    26   ar
    20    26    27   ar
    21     8     9   ar
    22     9    13    1
    23    13    14   ar
    24    14    15   ar
    25    15    16   ar
    26    16    17    1
    27    16    18   ar
    28    18    19   ar
    29    19    20    1
    30     9    10   ar
    31    10    11   ar
    32    11    12    1
    33    12     2    1
    34    11     6   ar
    35    27    21   ar
    36    19    13   ar
    37    28    31    1
    38    34    35    1
@<TRIPOS>MOLECULE
*****
 35 38 0 0 0
SMALL
GASTEIGER

@<TRIPOS>ATOM
      1 C         139.3918  146.9194  154.9561 C.3     1  UNL1        0.0437
      2 C         140.5903  146.0479  155.1887 C.3     1  UNL1        0.1368
      3 C         140.7678  146.3510  153.7303 C.3     1  UNL1        0.0437
      4 C         141.8504  145.2816  154.9148 C.3     1  UNL1        0.0643
      5 C         142.5168  144.5149  156.0185 C.3     1  UNL1        0.1020
      6 C         141.9231  144.5145  157.3960 C.ar    1  UNL1        0.0488
      7 C         142.5896  143.7478  158.4996 C.ar    1  UNL1        0.0034
      8 C         141.9959  143.7473  159.8771 C.ar    1  UNL1        0.0177
      9 C         140.7358  144.5136  160.1510 C.ar    1  UNL1        0.0851
     10 N         140.0694  145.2803  159.0474 N.ar    1  UNL1       -0.2119
     11 C         140.6631  145.2807  157.6698 C.ar    1  UNL1        0.2219
     12 O         139.9967  146.0474  156.5662 O.3     1  UNL1       -0.4676
     13 C         140.1421  144.5132  161.5285 C.ar    1  UNL1        0.0284
     14 C         140.7061  145.4122  162.5886 C.ar    1  UNL1        0.0032
     15 C         140.1124  145.4118  163.9661 C.ar    1  UNL1        0.0115
     16 C         138.9548  144.5123  164.2836 C.ar    1  UNL1        0.0585
     17 CL        138.3611  144.5118  165.6611 Cl      1  UNL1       -0.0822
     18 C         138.3908  143.6132  163.2235 C.ar    1  UNL1        0.0228
     19 C         138.9845  143.6137  161.8461 C.ar    1  UNL1        0.0599
     20 CL        138.4205  142.7146  160.7860 Cl      1  UNL1       -0.0822
     21 C         142.6623  142.9806  160.9808 C.ar    1  UNL1        0.0015
     22 C         142.1989  141.5940  161.3167 C.ar    1  UNL1        0.0009
     23 C         142.8654  140.8273  162.4203 C.ar    1  UNL1        0.0114
     24 C         143.9952  141.4472  163.1881 C.ar    1  UNL1        0.0577
     25 CL        144.6616  140.6805  164.2918 Cl      1  UNL1       -0.0822
     26 C         144.4585  142.8337  162.8522 C.ar    1  UNL1        0.0114
     27 C         143.7921  143.6004  161.7486 C.ar    1  UNL1        0.0009
     28 N         143.7769  143.7486  155.7446 N.am    1  UNL1       -0.3018
     29 C         143.7075  142.2922  155.3925 C.2     1  UNL1        0.2252
     30 O         142.3781  141.6020  155.3144 O.2     1  UNL1       -0.2750
     31 H         144.6495  144.2016  155.7959 H       1  UNL1        0.1497
     32 C         144.9677  141.5259  155.1186 C.3     1  UNL1        0.1167
     33 C         146.1173  141.6051  156.0788 C.3     1  UNL1        0.1467
     34 O         146.3827  142.8773  156.8278 O.3     1  UNL1       -0.3815
     35 H         146.6448  143.5716  156.2031 H       1  UNL1        0.2105
@<TRIPOS>BOND
     1     1     2    1
     2     2     3    1
     3     2     4    1
     4     4     5    1
     5     5    28    1
     6    28    29   am
     7    29    30    2
     8    29    32    1
     9    32    33    1
    10    33    34    1
    11     5     6    1
    12     6     7   ar
    13     7     8   ar
    14     8    21    1
    15    21    22   ar
    16    22    23   ar
    17    23    24   ar
    18    24    25    1
    19    24    26   ar
    20    26    27   ar
    21     8     9   ar
    22     9    13    1
    23    13    14   ar
    24    14    15   ar
    25    15    16   ar
    26    16    17    1
    27    16    18   ar
    28    18    19   ar
    29    19    20    1
    30     9    10   ar
    31    10    11   ar
    32    11    12    1
    33    12     2    1
    34    11     6   ar
    35    27    21   ar
    36    19    13   ar
    37    28    31    1
    38    34    35    1
