@<TRIPOS>MOLECULE
*****
 22 24 0 0 0
SMALL
GASTEIGER

@<TRIPOS>ATOM
      1 C         143.1683  138.5518  166.5345 C.2     1  UNL1        0.2487
      2 O         144.1559  137.6456  167.2079 O.2     1  UNL1       -0.2699
      3 N         142.4858  139.6326  167.3193 N.am    1  UNL1       -0.2763
      4 C         143.7854  138.9527  164.0428 C.ar    1  UNL1       -0.0178
      5 C         143.4802  138.7779  162.5847 C.ar    1  UNL1       -0.0041
      6 C         142.2529  138.0275  162.1599 C.ar    1  UNL1       -0.0003
      7 C         141.3306  137.4518  163.1934 C.ar    1  UNL1        0.0001
      8 C         141.6358  137.6266  164.6516 C.ar    1  UNL1        0.0042
      9 C         142.8632  138.3770  165.0763 C.ar    1  UNL1        0.0496
     10 C         145.3623  141.0040  163.8078 C.3     1  UNL1        0.0050
     11 C         145.0128  139.7031  164.4675 C.3     1  UNL1        0.0265
     12 C         141.4981  140.5387  166.6459 C.3     1  UNL1        0.0927
     13 C         141.8285  141.7636  165.8455 C.3     1  UNL1        0.0383
     14 C         140.5413  142.3610  165.3596 C.3     1  UNL1        0.0704
     15 N         139.4153  141.5053  165.8596 N.3     1  UNL1       -0.2960
     16 C         140.0067  140.3791  166.6546 C.3     1  UNL1        0.0887
     17 H         138.8873  141.1322  165.0707 H       1  UNL1        0.1233
     18 C         142.7909  139.8074  168.7776 C.3     1  UNL1        0.0936
     19 C         142.7115  141.1686  169.4025 C.3     1  UNL1        0.0199
     20 C         141.6303  141.9704  170.0645 C.3     1  UNL1        0.0017
     21 C         142.5993  143.0938  170.2864 C.3     1  UNL1        0.0001
     22 C         143.6805  142.2920  169.6245 C.3     1  UNL1        0.0017
@<TRIPOS>BOND
     1    10    11    1
     2    11     4    1
     3     4     5   ar
     4     5     6   ar
     5     6     7   ar
     6     7     8   ar
     7     8     9   ar
     8     9     1    1
     9     1     2    2
    10     1     3   am
    11     3    18    1
    12    18    19    1
    13    19    20    1
    14    20    21    1
    15    21    22    1
    16    12     3    1
    17    12    13    1
    18    13    14    1
    19    14    15    1
    20    15    16    1
    21     9     4   ar
    22    22    19    1
    23    16    12    1
    24    15    17    1
@<TRIPOS>MOLECULE
*****
 22 24 0 0 0
SMALL
GASTEIGER

@<TRIPOS>ATOM
      1 C         139.7005  140.4764  168.0402 C.2     1  UNL1        0.2487
      2 O         138.8850  139.4688  168.7949 O.2     1  UNL1       -0.2699
      3 N         139.4554  140.6950  166.5766 N.am    1  UNL1       -0.2763
      4 C         142.1188  140.6671  168.9705 C.ar    1  UNL1       -0.0178
      5 C         143.1794  141.4561  169.6794 C.ar    1  UNL1       -0.0041
      6 C         142.8825  142.8433  170.1668 C.ar    1  UNL1       -0.0003
      7 C         141.5249  143.4415  169.9453 C.ar    1  UNL1        0.0001
      8 C         140.4643  142.6525  169.2365 C.ar    1  UNL1        0.0042
      9 C         140.7612  141.2654  168.7491 C.ar    1  UNL1        0.0496
     10 C         143.0323  139.0760  167.1311 C.3     1  UNL1        0.0050
     11 C         142.4157  139.2800  168.4831 C.3     1  UNL1        0.0265
     12 C         140.2709  141.7026  165.8219 C.3     1  UNL1        0.0927
     13 C         141.5640  141.4354  165.1101 C.3     1  UNL1        0.0383
     14 C         142.0288  142.7219  164.4947 C.3     1  UNL1        0.0704
     15 N         141.0231  143.7843  164.8261 N.3     1  UNL1       -0.2960
     16 C         139.9366  143.1543  165.6463 C.3     1  UNL1        0.0887
     17 H         140.6296  144.1685  163.9671 H       1  UNL1        0.1233
     18 C         138.3946  139.9060  165.8677 C.3     1  UNL1        0.0936
     19 C         138.7727  138.9644  164.7630 C.3     1  UNL1        0.0199
     20 C         138.5716  138.9377  163.2768 C.3     1  UNL1        0.0017
     21 C         139.3073  137.6328  163.2007 C.3     1  UNL1        0.0001
     22 C         139.5084  137.6595  164.6869 C.3     1  UNL1        0.0017
@<TRIPOS>BOND
     1    10    11    1
     2    11     4    1
     3     4     5   ar
     4     5     6   ar
     5     6     7   ar
     6     7     8   ar
     7     8     9   ar
     8     9     1    1
     9     1     2    2
    10     1     3   am
    11     3    18    1
    12    18    19    1
    13    19    20    1
    14    20    21    1
    15    21    22    1
    16    12     3    1
    17    12    13    1
    18    13    14    1
    19    14    15    1
    20    15    16    1
    21     9     4   ar
    22    22    19    1
    23    16    12    1
    24    15    17    1
@<TRIPOS>MOLECULE
*****
 22 24 0 0 0
SMALL
GASTEIGER

@<TRIPOS>ATOM
      1 C         139.0094  139.3356  166.6769 C.2     1  UNL1        0.2487
      2 O         137.8940  139.0792  167.6465 O.2     1  UNL1       -0.2699
      3 N         140.3244  139.8634  167.1689 N.am    1  UNL1       -0.2763
      4 C         138.3258  140.1568  164.3087 C.ar    1  UNL1       -0.0178
      5 C         138.1262  139.8853  162.8471 C.ar    1  UNL1       -0.0041
      6 C         138.4106  138.5211  162.2919 C.ar    1  UNL1       -0.0003
      7 C         138.8947  137.4285  163.1984 C.ar    1  UNL1        0.0001
      8 C         139.0943  137.7000  164.6600 C.ar    1  UNL1        0.0042
      9 C         138.8098  139.0641  165.2152 C.ar    1  UNL1        0.0496
     10 C         137.7187  142.6554  163.9372 C.3     1  UNL1        0.0050
     11 C         138.0413  141.5209  164.8638 C.3     1  UNL1        0.0265
     12 C         141.4398  140.1199  166.1994 C.3     1  UNL1        0.0927
     13 C         142.5203  139.1503  165.8219 C.3     1  UNL1        0.0383
     14 C         143.4189  139.8220  164.8263 C.3     1  UNL1        0.0704
     15 N         142.8937  141.2068  164.5883 N.3     1  UNL1       -0.2960
     16 C         141.6706  141.3908  165.4369 C.3     1  UNL1        0.0887
     17 H         142.6524  141.3211  163.6039 H       1  UNL1        0.1233
     18 C         140.5240  140.1349  168.6307 C.3     1  UNL1        0.0936
     19 C         140.4105  141.5354  169.1557 C.3     1  UNL1        0.0199
     20 C         140.6533  142.9032  168.5900 C.3     1  UNL1        0.0017
     21 C         140.2498  143.5160  169.8983 C.3     1  UNL1        0.0001
     22 C         140.0070  142.1481  170.4641 C.3     1  UNL1        0.0017
@<TRIPOS>BOND
     1    10    11    1
     2    11     4    1
     3     4     5   ar
     4     5     6   ar
     5     6     7   ar
     6     7     8   ar
     7     8     9   ar
     8     9     1    1
     9     1     2    2
    10     1     3   am
    11     3    18    1
    12    18    19    1
    13    19    20    1
    14    20    21    1
    15    21    22    1
    16    12     3    1
    17    12    13    1
    18    13    14    1
    19    14    15    1
    20    15    16    1
    21     9     4   ar
    22    22    19    1
    23    16    12    1
    24    15    17    1
@<TRIPOS>MOLECULE
*****
 22 24 0 0 0
SMALL
GASTEIGER

@<TRIPOS>ATOM
      1 C         141.8952  139.5225  167.0097 C.2     1  UNL1        0.2487
      2 O         142.8975  139.1802  168.0718 O.2     1  UNL1       -0.2699
      3 N         140.5922  140.1630  167.3865 N.am    1  UNL1       -0.2763
      4 C         143.0510  140.1638  164.7729 C.ar    1  UNL1       -0.0178
      5 C         143.3517  139.8656  163.3340 C.ar    1  UNL1       -0.0041
      6 C         142.7972  138.6282  162.6927 C.ar    1  UNL1       -0.0003
      7 C         141.9421  137.6888  163.4904 C.ar    1  UNL1        0.0001
      8 C         141.6414  137.9870  164.9293 C.ar    1  UNL1        0.0042
      9 C         142.1959  139.2244  165.5706 C.ar    1  UNL1        0.0496
     10 C         142.9260  142.7223  165.2068 C.3     1  UNL1        0.0050
     11 C         143.6055  141.4012  165.4142 C.3     1  UNL1        0.0265
     12 C         139.5899  140.5053  166.3244 C.3     1  UNL1        0.0927
     13 C         139.5195  141.7948  165.5613 C.3     1  UNL1        0.0383
     14 C         138.3680  141.7047  164.6041 C.3     1  UNL1        0.0704
     15 N         137.7268  140.3596  164.7757 N.3     1  UNL1       -0.2960
     16 C         138.4819  139.6184  165.8389 C.3     1  UNL1        0.0887
     17 H         137.7676  139.8422  163.8976 H       1  UNL1        0.1233
     18 C         140.2915  140.4611  168.8256 C.3     1  UNL1        0.0936
     19 C         140.2935  141.8793  169.3140 C.3     1  UNL1        0.0199
     20 C         140.7283  143.1968  168.7439 C.3     1  UNL1        0.0017
     21 C         140.2962  143.8850  170.0047 C.3     1  UNL1        0.0001
     22 C         139.8614  142.5675  170.5749 C.3     1  UNL1        0.0017
@<TRIPOS>BOND
     1    10    11    1
     2    11     4    1
     3     4     5   ar
     4     5     6   ar
     5     6     7   ar
     6     7     8   ar
     7     8     9   ar
     8     9     1    1
     9     1     2    2
    10     1     3   am
    11     3    18    1
    12    18    19    1
    13    19    20    1
    14    20    21    1
    15    21    22    1
    16    12     3    1
    17    12    13    1
    18    13    14    1
    19    14    15    1
    20    15    16    1
    21     9     4   ar
    22    22    19    1
    23    16    12    1
    24    15    17    1
@<TRIPOS>MOLECULE
*****
 22 24 0 0 0
SMALL
GASTEIGER

@<TRIPOS>ATOM
      1 C         141.2883  141.0141  164.3611 C.2     1  UNL1        0.2487
      2 O         140.4198  141.0498  163.1386 O.2     1  UNL1       -0.2699
      3 N         140.6729  140.8011  165.7124 N.am    1  UNL1       -0.2763
      4 C         143.3701  142.5662  164.2779 C.ar    1  UNL1       -0.0178
      5 C         144.8540  142.7434  164.1491 C.ar    1  UNL1       -0.0041
      6 C         145.7400  141.5457  163.9747 C.ar    1  UNL1       -0.0003
      7 C         145.1421  140.1707  163.9291 C.ar    1  UNL1        0.0001
      8 C         143.6583  139.9936  164.0579 C.ar    1  UNL1        0.0042
      9 C         142.7722  141.1913  164.2323 C.ar    1  UNL1        0.0496
     10 C         142.8390  145.0622  163.7901 C.3     1  UNL1        0.0050
     11 C         142.4841  143.7639  164.4523 C.3     1  UNL1        0.0265
     12 C         141.5413  140.7653  166.9348 C.3     1  UNL1        0.0927
     13 C         141.9611  141.9502  167.7531 C.3     1  UNL1        0.0383
     14 C         142.8218  141.4556  168.8777 C.3     1  UNL1        0.0704
     15 N         142.9339  139.9649  168.7544 N.3     1  UNL1       -0.2960
     16 C         142.1426  139.5383  167.5537 C.3     1  UNL1        0.0887
     17 H         142.5594  139.5191  169.5920 H       1  UNL1        0.1233
     18 C         139.1889  140.6238  165.8412 C.3     1  UNL1        0.0936
     19 C         138.6166  139.2637  166.1100 C.3     1  UNL1        0.0199
     20 C         138.7054  137.9243  165.4405 C.3     1  UNL1        0.0017
     21 C         137.8071  137.3400  166.4901 C.3     1  UNL1        0.0001
     22 C         137.7183  138.6794  167.1596 C.3     1  UNL1        0.0017
@<TRIPOS>BOND
     1    10    11    1
     2    11     4    1
     3     4     5   ar
     4     5     6   ar
     5     6     7   ar
     6     7     8   ar
     7     8     9   ar
     8     9     1    1
     9     1     2    2
    10     1     3   am
    11     3    18    1
    12    18    19    1
    13    19    20    1
    14    20    21    1
    15    21    22    1
    16    12     3    1
    17    12    13    1
    18    13    14    1
    19    14    15    1
    20    15    16    1
    21     9     4   ar
    22    22    19    1
    23    16    12    1
    24    15    17    1
@<TRIPOS>MOLECULE
*****
 22 24 0 0 0
SMALL
GASTEIGER

@<TRIPOS>ATOM
      1 C         142.3973  139.7427  167.8623 C.2     1  UNL1        0.2487
      2 O         143.2409  138.6770  168.4967 O.2     1  UNL1       -0.2699
      3 N         142.4527  139.9592  166.3790 N.am    1  UNL1       -0.2763
      4 C         141.9876  141.9087  169.2373 C.ar    1  UNL1       -0.0178
      5 C         141.0886  142.7580  170.0861 C.ar    1  UNL1       -0.0041
      6 C         139.7003  142.2905  170.4088 C.ar    1  UNL1       -0.0003
      7 C         139.2110  140.9738  169.8827 C.ar    1  UNL1        0.0001
      8 C         140.1100  140.1246  169.0339 C.ar    1  UNL1        0.0042
      9 C         141.4983  140.5920  168.7112 C.ar    1  UNL1        0.0496
     10 C         144.3592  142.6254  170.0196 C.3     1  UNL1        0.0050
     11 C         143.3759  142.3762  168.9146 C.3     1  UNL1        0.0265
     12 C         141.6091  141.0250  165.7446 C.3     1  UNL1        0.0927
     13 C         142.0079  142.4553  165.5324 C.3     1  UNL1        0.0383
     14 C         140.8639  143.1619  164.8676 C.3     1  UNL1        0.0704
     15 N         139.7579  142.1682  164.6690 N.3     1  UNL1       -0.2960
     16 C         140.2185  140.8475  165.2110 C.3     1  UNL1        0.0887
     17 H         139.5465  142.0797  163.6750 H       1  UNL1        0.1233
     18 C         143.3517  139.1099  165.5302 C.3     1  UNL1        0.0936
     19 C         143.9119  139.6570  164.2508 C.3     1  UNL1        0.0199
     20 C         143.4865  139.6374  162.8125 C.3     1  UNL1        0.0017
     21 C         144.7042  140.4307  162.4415 C.3     1  UNL1        0.0001
     22 C         145.1297  140.4503  163.8798 C.3     1  UNL1        0.0017
@<TRIPOS>BOND
     1    10    11    1
     2    11     4    1
     3     4     5   ar
     4     5     6   ar
     5     6     7   ar
     6     7     8   ar
     7     8     9   ar
     8     9     1    1
     9     1     2    2
    10     1     3   am
    11     3    18    1
    12    18    19    1
    13    19    20    1
    14    20    21    1
    15    21    22    1
    16    12     3    1
    17    12    13    1
    18    13    14    1
    19    14    15    1
    20    15    16    1
    21     9     4   ar
    22    22    19    1
    23    16    12    1
    24    15    17    1
@<TRIPOS>MOLECULE
*****
 22 24 0 0 0
SMALL
GASTEIGER

@<TRIPOS>ATOM
      1 C         140.0908  140.5932  164.3492 C.2     1  UNL1        0.2487
      2 O         139.3832  141.4604  163.3505 O.2     1  UNL1       -0.2699
      3 N         141.5567  140.7842  164.6030 N.am    1  UNL1       -0.2763
      4 C         139.2565  138.1405  164.5460 C.ar    1  UNL1       -0.0178
      5 C         138.4981  137.0823  165.2908 C.ar    1  UNL1       -0.0041
      6 C         137.8154  137.4182  166.5836 C.ar    1  UNL1       -0.0003
      7 C         137.8912  138.8125  167.1315 C.ar    1  UNL1        0.0001
      8 C         138.6497  139.8708  166.3867 C.ar    1  UNL1        0.0042
      9 C         139.3323  139.5348  165.0940 C.ar    1  UNL1        0.0496
     10 C         139.2005  137.9479  161.9557 C.3     1  UNL1        0.0050
     11 C         139.9391  137.8046  163.2533 C.3     1  UNL1        0.0265
     12 C         142.2643  139.9170  165.6016 C.3     1  UNL1        0.0927
     13 C         142.9984  138.6441  165.3004 C.3     1  UNL1        0.0383
     14 C         143.5498  138.1108  166.5894 C.3     1  UNL1        0.0704
     15 N         143.1564  139.0540  167.6873 N.3     1  UNL1       -0.2960
     16 C         142.3619  140.1703  167.0768 C.3     1  UNL1        0.0887
     17 H         143.9914  139.4292  168.1371 H       1  UNL1        0.1233
     18 C         142.3152  141.8426  163.8582 C.3     1  UNL1        0.0936
     19 C         143.8098  141.7645  163.7587 C.3     1  UNL1        0.0199
     20 C         144.9555  142.4531  164.4393 C.3     1  UNL1        0.0017
     21 C         145.9236  141.6540  163.6181 C.3     1  UNL1        0.0001
     22 C         144.7779  140.9655  162.9375 C.3     1  UNL1        0.0017
@<TRIPOS>BOND
     1    10    11    1
     2    11     4    1
     3     4     5   ar
     4     5     6   ar
     5     6     7   ar
     6     7     8   ar
     7     8     9   ar
     8     9     1    1
     9     1     2    2
    10     1     3   am
    11     3    18    1
    12    18    19    1
    13    19    20    1
    14    20    21    1
    15    21    22    1
    16    12     3    1
    17    12    13    1
    18    13    14    1
    19    14    15    1
    20    15    16    1
    21     9     4   ar
    22    22    19    1
    23    16    12    1
    24    15    17    1
@<TRIPOS>MOLECULE
*****
 22 24 0 0 0
SMALL
GASTEIGER

@<TRIPOS>ATOM
      1 C         143.3760  138.8552  166.2974 C.2     1  UNL1        0.2487
      2 O         144.1007  137.7635  167.0276 O.2     1  UNL1       -0.2699
      3 N         142.6506  139.9189  167.0670 N.am    1  UNL1       -0.2763
      4 C         142.3137  138.1515  164.0333 C.ar    1  UNL1       -0.0178
      5 C         142.3145  138.1795  162.5336 C.ar    1  UNL1       -0.0041
      6 C         143.3785  138.9392  161.7982 C.ar    1  UNL1       -0.0003
      7 C         144.4417  139.6709  162.5626 C.ar    1  UNL1        0.0001
      8 C         144.4408  139.6429  164.0623 C.ar    1  UNL1        0.0042
      9 C         143.3768  138.8832  164.7976 C.ar    1  UNL1        0.0496
     10 C         139.8021  137.6653  164.4865 C.3     1  UNL1        0.0050
     11 C         141.2497  137.3918  164.7687 C.3     1  UNL1        0.0265
     12 C         141.9259  141.0106  166.3369 C.3     1  UNL1        0.0927
     13 C         142.5293  142.2917  165.8423 C.3     1  UNL1        0.0383
     14 C         141.4469  143.0857  165.1729 C.3     1  UNL1        0.0704
     15 N         140.1747  142.2953  165.2538 N.3     1  UNL1       -0.2960
     16 C         140.4707  141.0128  165.9732 C.3     1  UNL1        0.0887
     17 H         139.8318  142.0941  164.3144 H       1  UNL1        0.1233
     18 C         142.6498  139.8909  168.5668 C.3     1  UNL1        0.0936
     19 C         142.6795  141.1753  169.3409 C.3     1  UNL1        0.0199
     20 C         143.7031  142.2448  169.5823 C.3     1  UNL1        0.0017
     21 C         142.7214  142.9918  170.4357 C.3     1  UNL1        0.0001
     22 C         141.6978  141.9223  170.1943 C.3     1  UNL1        0.0017
@<TRIPOS>BOND
     1    10    11    1
     2    11     4    1
     3     4     5   ar
     4     5     6   ar
     5     6     7   ar
     6     7     8   ar
     7     8     9   ar
     8     9     1    1
     9     1     2    2
    10     1     3   am
    11     3    18    1
    12    18    19    1
    13    19    20    1
    14    20    21    1
    15    21    22    1
    16    12     3    1
    17    12    13    1
    18    13    14    1
    19    14    15    1
    20    15    16    1
    21     9     4   ar
    22    22    19    1
    23    16    12    1
    24    15    17    1
@<TRIPOS>MOLECULE
*****
 22 24 0 0 0
SMALL
GASTEIGER

@<TRIPOS>ATOM
      1 C         139.0285  139.6711  166.7083 C.2     1  UNL1        0.2487
      2 O         138.1596  138.9253  167.6772 O.2     1  UNL1       -0.2699
      3 N         140.2734  140.3552  167.1901 N.am    1  UNL1       -0.2763
      4 C         139.0020  138.5962  164.3431 C.ar    1  UNL1       -0.0178
      5 C         138.6259  138.6579  162.8923 C.ar    1  UNL1       -0.0041
      6 C         137.9003  139.8561  162.3559 C.ar    1  UNL1       -0.0003
      7 C         137.5507  140.9926  163.2703 C.ar    1  UNL1        0.0001
      8 C         137.9268  140.9309  164.7210 C.ar    1  UNL1        0.0042
      9 C         138.6524  139.7327  165.2574 C.ar    1  UNL1        0.0496
     10 C         141.1391  137.1228  164.4527 C.3     1  UNL1        0.0050
     11 C         139.7277  137.3980  164.8795 C.3     1  UNL1        0.0265
     12 C         141.1423  141.1010  166.2211 C.3     1  UNL1        0.0927
     13 C         141.0265  142.5550  165.8715 C.3     1  UNL1        0.0383
     14 C         142.0921  142.8764  164.8660 C.3     1  UNL1        0.0704
     15 N         142.8666  141.6208  164.5941 N.3     1  UNL1       -0.2960
     16 C         142.2795  140.5236  165.4316 C.3     1  UNL1        0.0887
     17 H         143.8466  141.7583  164.8411 H       1  UNL1        0.1233
     18 C         140.6495  140.2935  168.6409 C.3     1  UNL1        0.0936
     19 C         141.6394  141.2712  169.2013 C.3     1  UNL1        0.0199
     20 C         143.0959  141.2202  169.5563 C.3     1  UNL1        0.0017
     21 C         143.0395  142.6539  169.9937 C.3     1  UNL1        0.0001
     22 C         141.5830  142.7049  169.6387 C.3     1  UNL1        0.0017
@<TRIPOS>BOND
     1    10    11    1
     2    11     4    1
     3     4     5   ar
     4     5     6   ar
     5     6     7   ar
     6     7     8   ar
     7     8     9   ar
     8     9     1    1
     9     1     2    2
    10     1     3   am
    11     3    18    1
    12    18    19    1
    13    19    20    1
    14    20    21    1
    15    21    22    1
    16    12     3    1
    17    12    13    1
    18    13    14    1
    19    14    15    1
    20    15    16    1
    21     9     4   ar
    22    22    19    1
    23    16    12    1
    24    15    17    1
