@<TRIPOS>MOLECULE
*****
 29 34 0 0 0
SMALL
GASTEIGER

@<TRIPOS>ATOM
      1 O         143.6372  142.2689  166.5710 O.2     1  UNL1       -0.2443
      2 C         143.5531  141.7979  165.1494 C.ar    1  UNL1        0.3532
      3 N         143.2755  140.3539  164.8529 N.ar    1  UNL1       -0.2702
      4 C         143.1915  139.8829  163.4314 C.ar    1  UNL1        0.0965
      5 S         142.9331  138.5306  162.8356 S.2     1  UNL1       -0.0728
      6 C         142.9669  138.6678  161.3424 C.ar    1  UNL1        0.0210
      7 C         143.2463  140.1048  161.0151 C.ar    1  UNL1       -0.0126
      8 C         143.3850  140.8558  162.3061 C.ar    1  UNL1        0.0545
      9 C         143.6626  142.2997  162.6026 C.ar    1  UNL1        0.1717
     10 N         143.8954  143.4812  161.7082 N.ar    1  UNL1       -0.2032
     11 C         144.1233  144.6825  162.5771 C.ar    1  UNL1        0.2214
     12 N         144.0314  144.2434  164.0085 N.ar    1  UNL1       -0.1372
     13 N         143.7467  142.7708  164.0242 N.ar    1  UNL1       -0.1606
     14 C         143.3381  140.5439  159.5837 C.3     1  UNL1        0.0441
     15 C         143.1507  139.5460  158.4796 C.3     1  UNL1        0.0772
     16 N         142.8714  138.1090  158.8069 N.3     1  UNL1       -0.2652
     17 C         142.7795  137.6699  160.2382 C.3     1  UNL1        0.1055
     18 C         142.6839  137.1111  157.7027 C.3     1  UNL1        0.1175
     19 C         143.3100  135.7961  157.3439 C.3     1  UNL1        0.1606
     20 O         142.4188  135.7000  156.1412 O.3     1  UNL1       -0.3507
     21 C         141.7927  137.0150  156.5000 C.3     1  UNL1        0.1606
     22 C         143.0820  139.3810  165.9782 C.3     1  UNL1        0.1378
     23 C         141.9973  139.6094  166.9888 C.ar    1  UNL1        0.0006
     24 C         140.5872  139.8463  166.5352 C.ar    1  UNL1       -0.0015
     25 C         139.5026  140.0747  167.5458 C.ar    1  UNL1        0.0111
     26 C         139.8280  140.0662  169.0101 C.ar    1  UNL1        0.0577
     27 CL        138.7433  140.2946  170.0207 Cl      1  UNL1       -0.0822
     28 C         141.2379  139.8294  169.4637 C.ar    1  UNL1        0.0111
     29 C         142.3226  139.6010  168.4530 C.ar    1  UNL1       -0.0015
@<TRIPOS>BOND
     1     1     2    2
     2     2     3   ar
     3     3    22    1
     4    22    23    1
     5    23    24   ar
     6    24    25   ar
     7    25    26   ar
     8    26    27    1
     9    26    28   ar
    10    28    29   ar
    11     3     4   ar
    12     4     5   ar
    13     5     6   ar
    14     6     7   ar
    15     7     8   ar
    16     8     9   ar
    17     9    10   ar
    18    10    11   ar
    19    11    12   ar
    20    12    13   ar
    21     7    14    1
    22    14    15    1
    23    15    16    1
    24    16    18    1
    25    18    19    1
    26    19    20    1
    27    20    21    1
    28    16    17    1
    29    13     2   ar
    30    21    18    1
    31    29    23   ar
    32     8     4   ar
    33    13     9   ar
    34    17     6    1
@<TRIPOS>MOLECULE
*****
 29 34 0 0 0
SMALL
GASTEIGER

@<TRIPOS>ATOM
      1 O         140.1743  143.2595  166.4893 O.2     1  UNL1       -0.2443
      2 C         140.6857  143.1596  165.0827 C.ar    1  UNL1        0.3532
      3 N         142.1551  142.9977  164.8286 N.ar    1  UNL1       -0.2702
      4 C         142.6665  142.8978  163.4221 C.ar    1  UNL1        0.0965
      5 S         144.0504  142.7349  162.8664 S.2     1  UNL1       -0.0728
      6 C         143.9475  142.6962  161.3705 C.ar    1  UNL1        0.0210
      7 C         142.5002  142.8352  161.0016 C.ar    1  UNL1       -0.0126
      8 C         141.7085  142.9598  162.2695 C.ar    1  UNL1        0.0545
      9 C         140.2391  143.1217  162.5236 C.ar    1  UNL1        0.1717
     10 N         139.0643  143.2138  161.5955 N.ar    1  UNL1       -0.2032
     11 C         137.8268  143.3706  162.4285 C.ar    1  UNL1        0.2214
     12 N         138.2368  143.3755  163.8714 N.ar    1  UNL1       -0.1372
     13 N         139.7277  143.2216  163.9301 N.ar    1  UNL1       -0.1606
     14 C         142.0902  142.8304  159.5587 C.3     1  UNL1        0.0441
     15 C         143.1274  142.6865  158.4847 C.3     1  UNL1        0.0772
     16 N         144.5747  142.5475  158.8537 N.3     1  UNL1       -0.2652
     17 C         144.9848  142.5523  160.2964 C.3     1  UNL1        0.1055
     18 C         145.6120  142.4036  157.7796 C.3     1  UNL1        0.1175
     19 C         145.7043  141.6447  156.4891 C.3     1  UNL1        0.1606
     20 O         147.0789  142.2003  156.2608 O.3     1  UNL1       -0.3507
     21 C         146.9865  142.9592  157.5513 C.3     1  UNL1        0.1606
     22 C         143.1131  142.9357  165.9813 C.3     1  UNL1        0.1378
     23 C         142.9820  141.8499  167.0078 C.ar    1  UNL1        0.0006
     24 C         142.7349  140.4349  166.5756 C.ar    1  UNL1       -0.0015
     25 C         142.6038  139.3490  167.6021 C.ar    1  UNL1        0.0111
     26 C         142.7198  139.6782  169.0610 C.ar    1  UNL1        0.0577
     27 CL        142.5886  138.5924  170.0875 Cl      1  UNL1       -0.0822
     28 C         142.9668  141.0931  169.4932 C.ar    1  UNL1        0.0111
     29 C         143.0980  142.1790  168.4666 C.ar    1  UNL1       -0.0015
@<TRIPOS>BOND
     1     1     2    2
     2     2     3   ar
     3     3    22    1
     4    22    23    1
     5    23    24   ar
     6    24    25   ar
     7    25    26   ar
     8    26    27    1
     9    26    28   ar
    10    28    29   ar
    11     3     4   ar
    12     4     5   ar
    13     5     6   ar
    14     6     7   ar
    15     7     8   ar
    16     8     9   ar
    17     9    10   ar
    18    10    11   ar
    19    11    12   ar
    20    12    13   ar
    21     7    14    1
    22    14    15    1
    23    15    16    1
    24    16    18    1
    25    18    19    1
    26    19    20    1
    27    20    21    1
    28    16    17    1
    29    13     2   ar
    30    21    18    1
    31    29    23   ar
    32     8     4   ar
    33    13     9   ar
    34    17     6    1
@<TRIPOS>MOLECULE
*****
 29 34 0 0 0
SMALL
GASTEIGER

@<TRIPOS>ATOM
      1 O         143.7715  140.6850  165.1518 O.2     1  UNL1       -0.2443
      2 C         142.9993  141.1827  163.9661 C.ar    1  UNL1        0.3532
      3 N         141.9499  140.3153  163.3366 N.ar    1  UNL1       -0.2702
      4 C         141.1778  140.8130  162.1509 C.ar    1  UNL1        0.0965
      5 S         140.0918  140.1881  161.3260 S.2     1  UNL1       -0.0728
      6 C         139.6979  141.1670  160.2600 C.ar    1  UNL1        0.0210
      7 C         140.5404  142.3970  160.4260 C.ar    1  UNL1       -0.0126
      8 C         141.4550  142.1782  161.5946 C.ar    1  UNL1        0.0545
      9 C         142.5044  143.0456  162.2241 C.ar    1  UNL1        0.1717
     10 N         142.9941  144.4254  161.8979 N.ar    1  UNL1       -0.2032
     11 C         144.0690  144.7804  162.8820 C.ar    1  UNL1        0.2214
     12 N         144.2436  143.6200  163.8165 N.ar    1  UNL1       -0.1372
     13 N         143.2765  142.5479  163.4099 N.ar    1  UNL1       -0.1606
     14 C         140.3658  143.5573  159.4916 C.3     1  UNL1        0.0441
     15 C         139.3489  143.4877  158.3911 C.3     1  UNL1        0.0772
     16 N         138.5065  142.2578  158.2252 N.3     1  UNL1       -0.2652
     17 C         138.6809  141.0974  159.1595 C.3     1  UNL1        0.1055
     18 C         137.4895  142.1882  157.1247 C.3     1  UNL1        0.1175
     19 C         136.5256  141.1483  156.6354 C.3     1  UNL1        0.1606
     20 O         136.0513  142.0900  155.5684 O.3     1  UNL1       -0.3507
     21 C         137.0152  143.1299  156.0577 C.3     1  UNL1        0.1606
     22 C         141.6728  138.9500  163.8929 C.3     1  UNL1        0.1378
     23 C         140.5000  138.7350  164.8030 C.ar    1  UNL1        0.0006
     24 C         139.6323  137.5230  164.6347 C.ar    1  UNL1       -0.0015
     25 C         138.4594  137.3080  165.5448 C.ar    1  UNL1        0.0111
     26 C         138.1543  138.3050  166.6232 C.ar    1  UNL1        0.0577
     27 CL        136.9815  138.0900  167.5333 Cl      1  UNL1       -0.0822
     28 C         139.0219  139.5169  166.7915 C.ar    1  UNL1        0.0111
     29 C         140.1948  139.7320  165.8814 C.ar    1  UNL1       -0.0015
@<TRIPOS>BOND
     1     1     2    2
     2     2     3   ar
     3     3    22    1
     4    22    23    1
     5    23    24   ar
     6    24    25   ar
     7    25    26   ar
     8    26    27    1
     9    26    28   ar
    10    28    29   ar
    11     3     4   ar
    12     4     5   ar
    13     5     6   ar
    14     6     7   ar
    15     7     8   ar
    16     8     9   ar
    17     9    10   ar
    18    10    11   ar
    19    11    12   ar
    20    12    13   ar
    21     7    14    1
    22    14    15    1
    23    15    16    1
    24    16    18    1
    25    18    19    1
    26    19    20    1
    27    20    21    1
    28    16    17    1
    29    13     2   ar
    30    21    18    1
    31    29    23   ar
    32     8     4   ar
    33    13     9   ar
    34    17     6    1
@<TRIPOS>MOLECULE
*****
 29 34 0 0 0
SMALL
GASTEIGER

@<TRIPOS>ATOM
      1 O         138.9295  140.2098  166.4195 O.2     1  UNL1       -0.2443
      2 C         139.1121  140.6656  165.0022 C.ar    1  UNL1        0.3532
      3 N         139.4696  142.0935  164.7137 N.ar    1  UNL1       -0.2702
      4 C         139.6521  142.5494  163.2965 C.ar    1  UNL1        0.0965
      5 S         140.0028  143.8842  162.7086 S.2     1  UNL1       -0.0728
      6 C         140.0445  143.7370  161.2165 C.ar    1  UNL1        0.0210
      7 C         139.7197  142.3113  160.8820 C.ar    1  UNL1       -0.0126
      8 C         139.4772  141.5773  162.1675 C.ar    1  UNL1        0.0545
      9 C         139.1196  140.1494  162.4559 C.ar    1  UNL1        0.1717
     10 N         138.8837  138.9724  161.5564 N.ar    1  UNL1       -0.2032
     11 C         138.5553  137.7892  162.4179 C.ar    1  UNL1        0.2214
     12 N         138.5883  138.2348  163.8498 N.ar    1  UNL1       -0.1372
     13 N         138.9371  139.6935  163.8733 N.ar    1  UNL1       -0.1606
     14 C         139.6866  141.8656  159.4501 C.3     1  UNL1        0.0441
     15 C         139.9785  142.8457  158.3527 C.3     1  UNL1        0.0772
     16 N         140.3033  144.2713  158.6872 N.3     1  UNL1       -0.2652
     17 C         140.3363  144.7171  160.1190 C.3     1  UNL1        0.1055
     18 C         140.5951  145.2514  157.5896 C.3     1  UNL1        0.1175
     19 C         139.7710  146.1888  156.7579 C.3     1  UNL1        0.1606
     20 O         141.0080  146.6373  156.0376 O.3     1  UNL1       -0.3507
     21 C         141.8322  145.6998  156.8694 C.3     1  UNL1        0.1606
     22 C         139.6446  143.0656  165.8427 C.3     1  UNL1        0.1378
     23 C         140.7323  142.8531  166.8535 C.ar    1  UNL1        0.0006
     24 C         142.1020  142.4373  166.4052 C.ar    1  UNL1       -0.0015
     25 C         143.1898  142.2248  167.4160 C.ar    1  UNL1        0.0111
     26 C         142.9077  142.4281  168.8752 C.ar    1  UNL1        0.0577
     27 CL        143.9954  142.2157  169.8859 Cl      1  UNL1       -0.0822
     28 C         141.5381  142.8439  169.3235 C.ar    1  UNL1        0.0111
     29 C         140.4503  143.0564  168.3126 C.ar    1  UNL1       -0.0015
@<TRIPOS>BOND
     1     1     2    2
     2     2     3   ar
     3     3    22    1
     4    22    23    1
     5    23    24   ar
     6    24    25   ar
     7    25    26   ar
     8    26    27    1
     9    26    28   ar
    10    28    29   ar
    11     3     4   ar
    12     4     5   ar
    13     5     6   ar
    14     6     7   ar
    15     7     8   ar
    16     8     9   ar
    17     9    10   ar
    18    10    11   ar
    19    11    12   ar
    20    12    13   ar
    21     7    14    1
    22    14    15    1
    23    15    16    1
    24    16    18    1
    25    18    19    1
    26    19    20    1
    27    20    21    1
    28    16    17    1
    29    13     2   ar
    30    21    18    1
    31    29    23   ar
    32     8     4   ar
    33    13     9   ar
    34    17     6    1
@<TRIPOS>MOLECULE
*****
 29 34 0 0 0
SMALL
GASTEIGER

@<TRIPOS>ATOM
      1 O         141.0443  140.5845  159.6630 O.2     1  UNL1       -0.2443
      2 C         140.7493  140.5083  161.1318 C.ar    1  UNL1        0.3532
      3 N         141.4127  141.4621  162.0805 N.ar    1  UNL1       -0.2702
      4 C         141.1178  141.3859  163.5491 C.ar    1  UNL1        0.0965
      5 S         141.6163  142.1861  164.7160 S.2     1  UNL1       -0.0728
      6 C         140.9659  141.6507  165.9570 C.ar    1  UNL1        0.0210
      7 C         140.0654  140.5195  165.5573 C.ar    1  UNL1       -0.0126
      8 C         140.1593  140.3559  164.0692 C.ar    1  UNL1        0.0545
      9 C         139.4958  139.4021  163.1205 C.ar    1  UNL1        0.1717
     10 N         138.5141  138.2892  163.3390 N.ar    1  UNL1       -0.2032
     11 C         138.2023  137.6777  162.0053 C.ar    1  UNL1        0.2214
     12 N         138.9914  138.4125  160.9625 N.ar    1  UNL1       -0.1372
     13 N         139.7908  139.4783  161.6518 N.ar    1  UNL1       -0.1606
     14 C         139.2763  139.7846  166.6001 C.3     1  UNL1        0.0441
     15 C         139.3877  140.1809  168.0425 C.3     1  UNL1        0.0772
     16 N         140.2882  141.3120  168.4421 N.3     1  UNL1       -0.2652
     17 C         141.0773  142.0469  167.3995 C.3     1  UNL1        0.1055
     18 C         140.3996  141.7083  169.8846 C.3     1  UNL1        0.1175
     19 C         139.9127  142.8638  170.7078 C.3     1  UNL1        0.1606
     20 O         140.5571  142.2685  171.9245 O.3     1  UNL1       -0.3507
     21 C         141.0440  141.1130  171.1014 C.3     1  UNL1        0.1606
     22 C         142.3712  142.4921  161.5604 C.3     1  UNL1        0.1378
     23 C         141.9343  143.4525  160.4942 C.ar    1  UNL1        0.0006
     24 C         142.6881  143.5299  159.1997 C.ar    1  UNL1       -0.0015
     25 C         142.2512  144.4903  158.1335 C.ar    1  UNL1        0.0111
     26 C         141.0603  145.3734  158.3619 C.ar    1  UNL1        0.0577
     27 CL        140.6234  146.3338  157.2958 Cl      1  UNL1       -0.0822
     28 C         140.3065  145.2960  159.6564 C.ar    1  UNL1        0.0111
     29 C         140.7435  144.3356  160.7226 C.ar    1  UNL1       -0.0015
@<TRIPOS>BOND
     1     1     2    2
     2     2     3   ar
     3     3    22    1
     4    22    23    1
     5    23    24   ar
     6    24    25   ar
     7    25    26   ar
     8    26    27    1
     9    26    28   ar
    10    28    29   ar
    11     3     4   ar
    12     4     5   ar
    13     5     6   ar
    14     6     7   ar
    15     7     8   ar
    16     8     9   ar
    17     9    10   ar
    18    10    11   ar
    19    11    12   ar
    20    12    13   ar
    21     7    14    1
    22    14    15    1
    23    15    16    1
    24    16    18    1
    25    18    19    1
    26    19    20    1
    27    20    21    1
    28    16    17    1
    29    13     2   ar
    30    21    18    1
    31    29    23   ar
    32     8     4   ar
    33    13     9   ar
    34    17     6    1
@<TRIPOS>MOLECULE
*****
 29 34 0 0 0
SMALL
GASTEIGER

@<TRIPOS>ATOM
      1 O         138.8906  142.6980  158.8223 O.2     1  UNL1       -0.2443
      2 C         139.1179  142.6801  160.3049 C.ar    1  UNL1        0.3532
      3 N         139.0043  141.3922  161.0655 N.ar    1  UNL1       -0.2702
      4 C         139.2315  141.3742  162.5480 C.ar    1  UNL1        0.0965
      5 S         139.1886  140.2647  163.5567 S.2     1  UNL1       -0.0728
      6 C         139.5028  140.8488  164.9020 C.ar    1  UNL1        0.0210
      7 C         139.7400  142.3194  164.7249 C.ar    1  UNL1       -0.0126
      8 C         139.5723  142.6441  163.2701 C.ar    1  UNL1        0.0545
      9 C         139.6859  143.9319  162.5095 C.ar    1  UNL1        0.1717
     10 N         140.0056  145.3308  162.9465 N.ar    1  UNL1       -0.2032
     11 C         139.9759  146.2133  161.7340 C.ar    1  UNL1        0.2214
     12 N         139.6379  145.3599  160.5476 N.ar    1  UNL1       -0.1372
     13 N         139.4586  143.9499  161.0269 N.ar    1  UNL1       -0.1606
     14 C         140.0780  143.1728  165.9113 C.3     1  UNL1        0.0441
     15 C         140.1789  142.5557  167.2747 C.3     1  UNL1        0.0772
     16 N         139.9417  141.0852  167.4518 N.3     1  UNL1       -0.2652
     17 C         139.6037  140.2318  166.2655 C.3     1  UNL1        0.1055
     18 C         140.0426  140.4682  168.8153 C.3     1  UNL1        0.1175
     19 C         141.1166  139.7508  169.5781 C.3     1  UNL1        0.1606
     20 O         140.1851  139.5956  170.7436 O.3     1  UNL1       -0.3507
     21 C         139.1111  140.3129  169.9808 C.3     1  UNL1        0.1606
     22 C         138.6635  140.1223  160.3434 C.3     1  UNL1        0.1378
     23 C         139.7197  139.3960  159.5645 C.ar    1  UNL1        0.0006
     24 C         141.0286  139.0547  160.2129 C.ar    1  UNL1       -0.0015
     25 C         142.0848  138.3284  159.4340 C.ar    1  UNL1        0.0111
     26 C         141.8321  137.9432  158.0064 C.ar    1  UNL1        0.0577
     27 CL        142.8883  137.2168  157.2274 Cl      1  UNL1       -0.0822
     28 C         140.5233  138.2844  157.3579 C.ar    1  UNL1        0.0111
     29 C         139.4671  139.0108  158.1369 C.ar    1  UNL1       -0.0015
@<TRIPOS>BOND
     1     1     2    2
     2     2     3   ar
     3     3    22    1
     4    22    23    1
     5    23    24   ar
     6    24    25   ar
     7    25    26   ar
     8    26    27    1
     9    26    28   ar
    10    28    29   ar
    11     3     4   ar
    12     4     5   ar
    13     5     6   ar
    14     6     7   ar
    15     7     8   ar
    16     8     9   ar
    17     9    10   ar
    18    10    11   ar
    19    11    12   ar
    20    12    13   ar
    21     7    14    1
    22    14    15    1
    23    15    16    1
    24    16    18    1
    25    18    19    1
    26    19    20    1
    27    20    21    1
    28    16    17    1
    29    13     2   ar
    30    21    18    1
    31    29    23   ar
    32     8     4   ar
    33    13     9   ar
    34    17     6    1
@<TRIPOS>MOLECULE
*****
 29 34 0 0 0
SMALL
GASTEIGER

@<TRIPOS>ATOM
      1 O         142.8884  143.9013  159.1166 O.2     1  UNL1       -0.2443
      2 C         142.4122  143.6259  160.5121 C.ar    1  UNL1        0.3532
      3 N         142.9766  142.4694  161.2826 N.ar    1  UNL1       -0.2702
      4 C         142.5004  142.1940  162.6781 C.ar    1  UNL1        0.0965
      5 S         142.8704  141.1353  163.6744 S.2     1  UNL1       -0.0728
      6 C         142.0586  141.3623  164.9150 C.ar    1  UNL1        0.0210
      7 C         141.1868  142.5613  164.6856 C.ar    1  UNL1       -0.0126
      8 C         141.4598  143.0753  163.3031 C.ar    1  UNL1        0.0545
      9 C         140.8955  144.2319  162.5326 C.ar    1  UNL1        0.1717
     10 N         139.8670  145.2657  162.8840 N.ar    1  UNL1       -0.2032
     11 C         139.7076  146.1801  161.7056 C.ar    1  UNL1        0.2214
     12 N         140.6375  145.7113  160.6260 N.ar    1  UNL1       -0.1372
     13 N         141.3716  144.5072  161.1371 N.ar    1  UNL1       -0.1606
     14 C         140.2569  143.0301  165.7652 C.3     1  UNL1        0.0441
     15 C         140.1988  142.3000  167.0742 C.3     1  UNL1        0.0772
     16 N         141.0706  141.1011  167.3036 N.3     1  UNL1       -0.2652
     17 C         142.0005  140.6322  166.2241 C.3     1  UNL1        0.1055
     18 C         141.0125  140.3710  168.6127 C.3     1  UNL1        0.1175
     19 C         141.9729  139.5330  169.4034 C.3     1  UNL1        0.1606
     20 O         140.9301  139.3386  170.4640 O.3     1  UNL1       -0.3507
     21 C         139.9696  140.1765  169.6733 C.3     1  UNL1        0.1606
     22 C         144.0172  141.5881  160.6576 C.3     1  UNL1        0.1378
     23 C         143.6020  140.4304  159.7989 C.ar    1  UNL1        0.0006
     24 C         143.2484  139.1167  160.4307 C.ar    1  UNL1       -0.0015
     25 C         142.8332  137.9590  159.5721 C.ar    1  UNL1        0.0111
     26 C         142.7716  138.1150  158.0814 C.ar    1  UNL1        0.0577
     27 CL        142.3564  136.9573  157.2228 Cl      1  UNL1       -0.0822
     28 C         143.1251  139.4286  157.4496 C.ar    1  UNL1        0.0111
     29 C         143.5404  140.5863  158.3083 C.ar    1  UNL1       -0.0015
@<TRIPOS>BOND
     1     1     2    2
     2     2     3   ar
     3     3    22    1
     4    22    23    1
     5    23    24   ar
     6    24    25   ar
     7    25    26   ar
     8    26    27    1
     9    26    28   ar
    10    28    29   ar
    11     3     4   ar
    12     4     5   ar
    13     5     6   ar
    14     6     7   ar
    15     7     8   ar
    16     8     9   ar
    17     9    10   ar
    18    10    11   ar
    19    11    12   ar
    20    12    13   ar
    21     7    14    1
    22    14    15    1
    23    15    16    1
    24    16    18    1
    25    18    19    1
    26    19    20    1
    27    20    21    1
    28    16    17    1
    29    13     2   ar
    30    21    18    1
    31    29    23   ar
    32     8     4   ar
    33    13     9   ar
    34    17     6    1
@<TRIPOS>MOLECULE
*****
 29 34 0 0 0
SMALL
GASTEIGER

@<TRIPOS>ATOM
      1 O         140.6602  138.3254  155.4151 O.2     1  UNL1       -0.2443
      2 C         140.6722  138.5611  156.8964 C.ar    1  UNL1        0.3532
      3 N         141.8021  138.0343  157.7305 N.ar    1  UNL1       -0.2702
      4 C         141.8141  138.2700  159.2118 C.ar    1  UNL1        0.0965
      5 S         142.7866  137.8745  160.2833 S.2     1  UNL1       -0.0728
      6 C         142.2698  138.3926  161.5926 C.ar    1  UNL1        0.0210
      7 C         140.9778  139.1083  161.3304 C.ar    1  UNL1       -0.0126
      8 C         140.6962  139.0326  159.8590 C.ar    1  UNL1        0.0545
      9 C         139.5663  139.5594  159.0249 C.ar    1  UNL1        0.1717
     10 N         138.3358  140.3402  159.3800 N.ar    1  UNL1       -0.2032
     11 C         137.5633  140.5871  158.1182 C.ar    1  UNL1        0.2214
     12 N         138.3164  139.9588  156.9832 N.ar    1  UNL1       -0.1372
     13 N         139.5543  139.3237  157.5436 N.ar    1  UNL1       -0.1606
     14 C         140.2247  139.7366  162.4654 C.3     1  UNL1        0.0441
     15 C         140.7636  139.6491  163.8625 C.3     1  UNL1        0.0772
     16 N         142.0555  138.9334  164.1247 N.3     1  UNL1       -0.2652
     17 C         142.8086  138.3051  162.9898 C.3     1  UNL1        0.1055
     18 C         142.5943  138.8460  165.5219 C.3     1  UNL1        0.1175
     19 C         142.2767  139.5173  166.8251 C.3     1  UNL1        0.1606
     20 O         143.3563  138.7222  167.4977 O.3     1  UNL1       -0.3507
     21 C         143.6739  138.0509  166.1945 C.3     1  UNL1        0.1606
     22 C         142.9200  137.2717  157.0833 C.3     1  UNL1        0.1378
     23 C         142.7746  135.8009  156.8271 C.ar    1  UNL1        0.0006
     24 C         141.9052  135.3173  155.7045 C.ar    1  UNL1       -0.0015
     25 C         141.7598  133.8465  155.4484 C.ar    1  UNL1        0.0111
     26 C         142.4840  132.8592  156.3149 C.ar    1  UNL1        0.0577
     27 CL        142.3387  131.3884  156.0588 Cl      1  UNL1       -0.0822
     28 C         143.3535  133.3427  157.4375 C.ar    1  UNL1        0.0111
     29 C         143.4988  134.8136  157.6936 C.ar    1  UNL1       -0.0015
@<TRIPOS>BOND
     1     1     2    2
     2     2     3   ar
     3     3    22    1
     4    22    23    1
     5    23    24   ar
     6    24    25   ar
     7    25    26   ar
     8    26    27    1
     9    26    28   ar
    10    28    29   ar
    11     3     4   ar
    12     4     5   ar
    13     5     6   ar
    14     6     7   ar
    15     7     8   ar
    16     8     9   ar
    17     9    10   ar
    18    10    11   ar
    19    11    12   ar
    20    12    13   ar
    21     7    14    1
    22    14    15    1
    23    15    16    1
    24    16    18    1
    25    18    19    1
    26    19    20    1
    27    20    21    1
    28    16    17    1
    29    13     2   ar
    30    21    18    1
    31    29    23   ar
    32     8     4   ar
    33    13     9   ar
    34    17     6    1
@<TRIPOS>MOLECULE
*****
 29 34 0 0 0
SMALL
GASTEIGER

@<TRIPOS>ATOM
      1 O         140.2269  143.6242  165.3472 O.2     1  UNL1       -0.2443
      2 C         140.6757  143.3465  163.9431 C.ar    1  UNL1        0.3532
      3 N         141.4106  142.0774  163.6278 N.ar    1  UNL1       -0.2702
      4 C         141.8593  141.7997  162.2238 C.ar    1  UNL1        0.0965
      5 S         142.5977  140.6439  161.6160 S.2     1  UNL1       -0.0728
      6 C         142.7679  140.9210  160.1518 C.ar    1  UNL1        0.0210
      7 C         142.1348  142.2479  159.8544 C.ar    1  UNL1       -0.0126
      8 C         141.5732  142.7910  161.1349 C.ar    1  UNL1        0.0545
      9 C         140.8383  144.0600  161.4502 C.ar    1  UNL1        0.1717
     10 N         140.4164  145.2153  160.5916 N.ar    1  UNL1       -0.2032
     11 C         139.7069  146.2071  161.4650 C.ar    1  UNL1        0.2214
     12 N         139.6903  145.6648  162.8634 N.ar    1  UNL1       -0.1372
     13 N         140.3896  144.3378  162.8543 N.ar    1  UNL1       -0.1606
     14 C         142.1513  142.7903  158.4559 C.3     1  UNL1        0.0441
     15 C         142.8011  142.0057  157.3549 C.3     1  UNL1        0.0772
     16 N         143.4342  140.6788  157.6523 N.3     1  UNL1       -0.2652
     17 C         143.4177  140.1364  159.0507 C.3     1  UNL1        0.1055
     18 C         144.0840  139.8943  156.5512 C.3     1  UNL1        0.1175
     19 C         145.3406  140.0385  155.7450 C.3     1  UNL1        0.1606
     20 O         145.0027  138.7847  154.9940 O.3     1  UNL1       -0.3507
     21 C         143.7461  138.6404  155.8003 C.3     1  UNL1        0.1606
     22 C         141.6967  141.0861  164.7166 C.3     1  UNL1        0.1378
     23 C         140.5741  140.3071  165.3355 C.ar    1  UNL1        0.0006
     24 C         139.7351  139.3980  164.4872 C.ar    1  UNL1       -0.0015
     25 C         138.6126  138.6189  165.1060 C.ar    1  UNL1        0.0111
     26 C         138.3290  138.7491  166.5733 C.ar    1  UNL1        0.0577
     27 CL        137.2065  137.9700  167.1921 Cl      1  UNL1       -0.0822
     28 C         139.1679  139.6581  167.4215 C.ar    1  UNL1        0.0111
     29 C         140.2905  140.4372  166.8027 C.ar    1  UNL1       -0.0015
@<TRIPOS>BOND
     1     1     2    2
     2     2     3   ar
     3     3    22    1
     4    22    23    1
     5    23    24   ar
     6    24    25   ar
     7    25    26   ar
     8    26    27    1
     9    26    28   ar
    10    28    29   ar
    11     3     4   ar
    12     4     5   ar
    13     5     6   ar
    14     6     7   ar
    15     7     8   ar
    16     8     9   ar
    17     9    10   ar
    18    10    11   ar
    19    11    12   ar
    20    12    13   ar
    21     7    14    1
    22    14    15    1
    23    15    16    1
    24    16    18    1
    25    18    19    1
    26    19    20    1
    27    20    21    1
    28    16    17    1
    29    13     2   ar
    30    21    18    1
    31    29    23   ar
    32     8     4   ar
    33    13     9   ar
    34    17     6    1
