@<TRIPOS>MOLECULE
*****
 35 39 0 0 0
SMALL
GASTEIGER

@<TRIPOS>ATOM
      1 N         138.1007  140.1292  162.3974 N.3     1  UNL1       -0.2687
      2 C         138.3200  140.8879  161.1222 C.3     1  UNL1        0.0737
      3 C         138.2221  142.3846  161.1136 C.3     1  UNL1        0.0359
      4 C         137.9049  143.1227  162.3803 C.3     1  UNL1        0.0901
      5 C         137.6856  142.3640  163.6556 C.3     1  UNL1        0.1911
      6 F         137.3684  143.1021  164.9224 F       1  UNL1       -0.2343
      7 C         137.7835  140.8672  163.6641 C.3     1  UNL1        0.1092
      8 N         137.8071  144.6195  162.3718 N.3     1  UNL1       -0.2913
      9 H         137.1821  144.8780  163.1354 H       1  UNL1        0.1236
     10 C         139.0449  145.4529  162.5243 C.3     1  UNL1        0.1153
     11 C         140.3920  144.7944  162.5657 C.ar    1  UNL1        0.0782
     12 C         140.9555  144.3211  163.8728 C.ar    1  UNL1        0.0562
     13 C         142.3026  143.6626  163.9142 C.ar    1  UNL1        0.1752
     14 C         143.0862  143.4774  162.6486 C.ar    1  UNL1        0.1914
     15 C         142.5226  143.9508  161.3415 C.ar    1  UNL1        0.1384
     16 N         141.1755  144.6093  161.3001 N.ar    1  UNL1       -0.2434
     17 O         144.4333  142.8190  162.6900 O.3     1  UNL1       -0.4668
     18 C         144.9968  142.3456  163.9971 C.3     1  UNL1        0.2527
     19 C         144.2133  142.5307  165.2627 C.3     1  UNL1        0.2526
     20 O         142.8661  143.1892  165.2213 O.3     1  UNL1       -0.4683
     21 C         138.1985  138.6323  162.4059 C.3     1  UNL1        0.0970
     22 C         138.9110  137.9337  163.5258 C.3     1  UNL1        0.1264
     23 C         139.9406  139.5923  167.5803 C.ar    1  UNL1        0.1403
     24 C         141.3603  139.9510  167.9054 C.ar    1  UNL1        0.0385
     25 C         142.4369  139.7569  166.8790 C.ar    1  UNL1        0.0237
     26 C         142.0937  139.2040  165.5276 C.ar    1  UNL1        0.0975
     27 N         143.1702  139.0099  164.5012 N.ar    1  UNL1       -0.2374
     28 C         142.8270  138.4570  163.1497 C.ar    1  UNL1        0.1594
     29 C         141.4072  138.0983  162.8246 C.ar    1  UNL1        0.2803
     30 O         141.0640  137.5454  161.4731 O.2     1  UNL1       -0.2653
     31 N         140.3307  138.2924  163.8509 N.ar    1  UNL1       -0.2913
     32 C         140.6740  138.8453  165.2025 C.ar    1  UNL1        0.0832
     33 C         139.5975  139.0395  166.2288 C.ar    1  UNL1        0.0557
     34 C         139.1526  140.5601  169.8590 C.3     1  UNL1        0.2525
     35 O         138.8641  139.7865  168.6067 O.3     1  UNL1       -0.4714
@<TRIPOS>BOND
     1    34    35    1
     2    35    23    1
     3    23    24   ar
     4    24    25   ar
     5    25    26   ar
     6    26    27   ar
     7    27    28   ar
     8    28    29   ar
     9    29    30    2
    10    29    31   ar
    11    31    22    1
    12    22    21    1
    13    21     1    1
    14     1     2    1
    15     2     3    1
    16     3     4    1
    17     4     8    1
    18     8    10    1
    19    10    11    1
    20    11    12   ar
    21    12    13   ar
    22    13    14   ar
    23    14    15   ar
    24    15    16   ar
    25    14    17    1
    26    17    18    1
    27    18    19    1
    28    19    20    1
    29     4     5    1
    30     5     6    1
    31     5     7    1
    32    31    32   ar
    33    32    33   ar
    34    33    23   ar
    35    32    26   ar
    36     7     1    1
    37    16    11   ar
    38    20    13    1
    39     8     9    1
@<TRIPOS>MOLECULE
*****
 35 39 0 0 0
SMALL
GASTEIGER

@<TRIPOS>ATOM
      1 N         142.9054  144.2057  162.6898 N.3     1  UNL1       -0.2687
      2 C         142.1788  144.7105  163.9011 C.3     1  UNL1        0.0737
      3 C         140.7172  145.0369  163.8171 C.3     1  UNL1        0.0359
      4 C         139.9822  144.8584  162.5218 C.3     1  UNL1        0.0901
      5 C         140.7088  144.3537  161.3105 C.3     1  UNL1        0.1911
      6 F         139.9737  144.1752  160.0151 F       1  UNL1       -0.2343
      7 C         142.1704  144.0273  161.3945 C.3     1  UNL1        0.1092
      8 N         138.5205  145.1848  162.4377 N.3     1  UNL1       -0.2913
      9 H         138.2794  145.2033  161.4468 H       1  UNL1        0.1236
     10 C         137.5144  144.2995  163.1116 C.3     1  UNL1        0.1153
     11 C         137.7403  142.8179  163.1720 C.ar    1  UNL1        0.0782
     12 C         138.0199  142.1548  164.4881 C.ar    1  UNL1        0.0562
     13 C         138.2458  140.6732  164.5484 C.ar    1  UNL1        0.1752
     14 C         138.1921  139.8546  163.2926 C.ar    1  UNL1        0.1914
     15 C         137.9126  140.5176  161.9765 C.ar    1  UNL1        0.1384
     16 N         137.6867  141.9994  161.9162 N.ar    1  UNL1       -0.2434
     17 O         138.4180  138.3729  163.3529 O.3     1  UNL1       -0.4668
     18 C         138.6976  137.7098  164.6691 C.3     1  UNL1        0.2527
     19 C         138.7512  138.5284  165.9248 C.3     1  UNL1        0.2526
     20 O         138.5253  140.0101  165.8646 O.3     1  UNL1       -0.4683
     21 C         144.3671  143.8794  162.7739 C.3     1  UNL1        0.0970
     22 C         144.8589  142.8983  163.7964 C.3     1  UNL1        0.1264
     23 C         142.6941  141.5758  167.5132 C.ar    1  UNL1        0.1403
     24 C         142.0952  140.2024  167.5837 C.ar    1  UNL1        0.0385
     25 C         142.2179  139.2698  166.4153 C.ar    1  UNL1        0.0237
     26 C         142.9395  139.7106  165.1764 C.ar    1  UNL1        0.0975
     27 N         143.0621  138.7780  164.0080 N.ar    1  UNL1       -0.2374
     28 C         143.7837  139.2188  162.7690 C.ar    1  UNL1        0.1594
     29 C         144.3827  140.5923  162.6985 C.ar    1  UNL1        0.2803
     30 O         145.1043  141.0331  161.4596 O.2     1  UNL1       -0.2653
     31 N         144.2600  141.5249  163.8669 N.ar    1  UNL1       -0.2913
     32 C         143.5384  141.0840  165.1059 C.ar    1  UNL1        0.0832
     33 C         143.4157  142.0166  166.2743 C.ar    1  UNL1        0.0557
     34 C         143.5640  142.4390  169.8041 C.3     1  UNL1        0.2525
     35 O         142.5715  142.5084  168.6816 O.3     1  UNL1       -0.4714
@<TRIPOS>BOND
     1    34    35    1
     2    35    23    1
     3    23    24   ar
     4    24    25   ar
     5    25    26   ar
     6    26    27   ar
     7    27    28   ar
     8    28    29   ar
     9    29    30    2
    10    29    31   ar
    11    31    22    1
    12    22    21    1
    13    21     1    1
    14     1     2    1
    15     2     3    1
    16     3     4    1
    17     4     8    1
    18     8    10    1
    19    10    11    1
    20    11    12   ar
    21    12    13   ar
    22    13    14   ar
    23    14    15   ar
    24    15    16   ar
    25    14    17    1
    26    17    18    1
    27    18    19    1
    28    19    20    1
    29     4     5    1
    30     5     6    1
    31     5     7    1
    32    31    32   ar
    33    32    33   ar
    34    33    23   ar
    35    32    26   ar
    36     7     1    1
    37    16    11   ar
    38    20    13    1
    39     8     9    1
@<TRIPOS>MOLECULE
*****
 35 39 0 0 0
SMALL
GASTEIGER

@<TRIPOS>ATOM
      1 N         144.5185  140.1649  163.4687 N.3     1  UNL1       -0.2687
      2 C         144.1652  140.0234  162.0177 C.3     1  UNL1        0.0737
      3 C         143.0961  139.0592  161.5967 C.3     1  UNL1        0.0359
      4 C         142.3803  138.2365  162.6266 C.3     1  UNL1        0.0901
      5 C         142.7336  138.3779  164.0775 C.3     1  UNL1        0.1911
      6 F         142.0178  137.5551  165.1074 F       1  UNL1       -0.2343
      7 C         143.8027  139.3421  164.4985 C.3     1  UNL1        0.1092
      8 N         141.3111  137.2722  162.2056 N.3     1  UNL1       -0.2913
      9 H         141.4562  136.4182  162.7441 H       1  UNL1        0.1236
     10 C         139.8654  137.6412  162.3599 C.3     1  UNL1        0.1153
     11 C         139.4382  139.0726  162.2248 C.ar    1  UNL1        0.0782
     12 C         138.8927  139.8078  163.4131 C.ar    1  UNL1        0.0562
     13 C         138.4654  141.2393  163.2780 C.ar    1  UNL1        0.1752
     14 C         138.5836  141.9356  161.9547 C.ar    1  UNL1        0.1914
     15 C         139.1290  141.2004  160.7664 C.ar    1  UNL1        0.1384
     16 N         139.5563  139.7689  160.9015 N.ar    1  UNL1       -0.2434
     17 O         138.1563  143.3671  161.8196 O.3     1  UNL1       -0.4668
     18 C         137.6108  144.1023  163.0079 C.3     1  UNL1        0.2527
     19 C         137.4927  143.4060  164.3312 C.3     1  UNL1        0.2526
     20 O         137.9199  141.9745  164.4663 O.3     1  UNL1       -0.4683
     21 C         145.5877  141.1291  163.8897 C.3     1  UNL1        0.0970
     22 C         145.2183  142.5185  164.3177 C.3     1  UNL1        0.1264
     23 C         142.3854  141.9799  167.7723 C.ar    1  UNL1        0.1403
     24 C         140.9648  142.4475  167.6572 C.ar    1  UNL1        0.0385
     25 C         140.4885  143.0945  166.3905 C.ar    1  UNL1        0.0237
     26 C         141.4328  143.2740  165.2390 C.ar    1  UNL1        0.0975
     27 N         140.9565  143.9211  163.9723 N.ar    1  UNL1       -0.2374
     28 C         141.9008  144.1006  162.8208 C.ar    1  UNL1        0.1594
     29 C         143.3214  143.6331  162.9359 C.ar    1  UNL1        0.2803
     30 O         144.2657  143.8126  161.7844 O.2     1  UNL1       -0.2653
     31 N         143.7977  142.9860  164.2026 N.ar    1  UNL1       -0.2913
     32 C         142.8534  142.8065  165.3541 C.ar    1  UNL1        0.0832
     33 C         143.3297  142.1595  166.6208 C.ar    1  UNL1        0.0557
     34 C         142.2251  141.6906  170.3492 C.3     1  UNL1        0.2525
     35 O         142.8617  141.3329  169.0390 O.3     1  UNL1       -0.4714
@<TRIPOS>BOND
     1    34    35    1
     2    35    23    1
     3    23    24   ar
     4    24    25   ar
     5    25    26   ar
     6    26    27   ar
     7    27    28   ar
     8    28    29   ar
     9    29    30    2
    10    29    31   ar
    11    31    22    1
    12    22    21    1
    13    21     1    1
    14     1     2    1
    15     2     3    1
    16     3     4    1
    17     4     8    1
    18     8    10    1
    19    10    11    1
    20    11    12   ar
    21    12    13   ar
    22    13    14   ar
    23    14    15   ar
    24    15    16   ar
    25    14    17    1
    26    17    18    1
    27    18    19    1
    28    19    20    1
    29     4     5    1
    30     5     6    1
    31     5     7    1
    32    31    32   ar
    33    32    33   ar
    34    33    23   ar
    35    32    26   ar
    36     7     1    1
    37    16    11   ar
    38    20    13    1
    39     8     9    1
@<TRIPOS>MOLECULE
*****
 35 39 0 0 0
SMALL
GASTEIGER

@<TRIPOS>ATOM
      1 N         143.0001  144.1058  162.3018 N.3     1  UNL1       -0.2687
      2 C         142.4051  144.9247  163.4087 C.3     1  UNL1        0.0737
      3 C         140.9439  145.2631  163.3893 C.3     1  UNL1        0.0359
      4 C         140.0777  144.7824  162.2630 C.3     1  UNL1        0.0901
      5 C         140.6728  143.9635  161.1560 C.3     1  UNL1        0.1911
      6 F         139.8065  143.4829  160.0296 F       1  UNL1       -0.2343
      7 C         142.1339  143.6252  161.1755 C.3     1  UNL1        0.1092
      8 N         138.6164  145.1207  162.2435 N.3     1  UNL1       -0.2913
      9 H         138.3107  145.0501  161.2730 H       1  UNL1        0.1236
     10 C         137.6496  144.3171  163.0617 C.3     1  UNL1        0.1153
     11 C         137.8437  142.8374  163.2127 C.ar    1  UNL1        0.0782
     12 C         138.1870  142.2590  164.5534 C.ar    1  UNL1        0.0562
     13 C         138.3812  140.7793  164.7044 C.ar    1  UNL1        0.1752
     14 C         138.2320  139.8780  163.5146 C.ar    1  UNL1        0.1914
     15 C         137.8887  140.4564  162.1739 C.ar    1  UNL1        0.1384
     16 N         137.6945  141.9362  162.0229 N.ar    1  UNL1       -0.2434
     17 O         138.4261  138.3983  163.6656 O.3     1  UNL1       -0.4668
     18 C         138.7694  137.8199  165.0063 C.3     1  UNL1        0.2527
     19 C         138.9186  138.7211  166.1960 C.3     1  UNL1        0.2526
     20 O         138.7245  140.2008  166.0451 O.3     1  UNL1       -0.4683
     21 C         144.4614  143.7675  162.3213 C.3     1  UNL1        0.0970
     22 C         144.9175  142.4431  162.8577 C.3     1  UNL1        0.1264
     23 C         143.1914  138.9885  160.5477 C.ar    1  UNL1        0.1403
     24 C         142.2071  138.0654  161.2027 C.ar    1  UNL1        0.0385
     25 C         141.7981  138.2938  162.6276 C.ar    1  UNL1        0.0237
     26 C         142.3735  139.4453  163.3977 C.ar    1  UNL1        0.0975
     27 N         141.9645  139.6738  164.8226 N.ar    1  UNL1       -0.2374
     28 C         142.5399  140.8253  165.5927 C.ar    1  UNL1        0.1594
     29 C         143.5242  141.7484  164.9377 C.ar    1  UNL1        0.2803
     30 O         144.0996  142.8999  165.7077 O.2     1  UNL1       -0.2653
     31 N         143.9332  141.5200  163.5127 N.ar    1  UNL1       -0.2913
     32 C         143.3578  140.3684  162.7427 C.ar    1  UNL1        0.0832
     33 C         143.7667  140.1400  161.3177 C.ar    1  UNL1        0.0557
     34 C         142.6859  138.0243  158.1887 C.3     1  UNL1        0.2525
     35 O         143.6003  138.7601  159.1227 O.3     1  UNL1       -0.4714
@<TRIPOS>BOND
     1    34    35    1
     2    35    23    1
     3    23    24   ar
     4    24    25   ar
     5    25    26   ar
     6    26    27   ar
     7    27    28   ar
     8    28    29   ar
     9    29    30    2
    10    29    31   ar
    11    31    22    1
    12    22    21    1
    13    21     1    1
    14     1     2    1
    15     2     3    1
    16     3     4    1
    17     4     8    1
    18     8    10    1
    19    10    11    1
    20    11    12   ar
    21    12    13   ar
    22    13    14   ar
    23    14    15   ar
    24    15    16   ar
    25    14    17    1
    26    17    18    1
    27    18    19    1
    28    19    20    1
    29     4     5    1
    30     5     6    1
    31     5     7    1
    32    31    32   ar
    33    32    33   ar
    34    33    23   ar
    35    32    26   ar
    36     7     1    1
    37    16    11   ar
    38    20    13    1
    39     8     9    1
@<TRIPOS>MOLECULE
*****
 35 39 0 0 0
SMALL
GASTEIGER

@<TRIPOS>ATOM
      1 N         138.8920  139.6337  161.4841 N.3     1  UNL1       -0.2687
      2 C         139.8099  139.9084  160.3299 C.3     1  UNL1        0.0737
      3 C         141.0949  139.1465  160.1958 C.3     1  UNL1        0.0359
      4 C         141.4621  138.1099  161.2159 C.3     1  UNL1        0.0901
      5 C         140.5443  137.8352  162.3700 C.3     1  UNL1        0.1911
      6 F         140.9116  136.7985  163.3901 F       1  UNL1       -0.2343
      7 C         139.2592  138.5971  162.5041 C.3     1  UNL1        0.1092
      8 N         142.7473  137.3479  161.0818 N.3     1  UNL1       -0.2913
      9 H         142.8627  137.1373  160.0905 H       1  UNL1        0.1236
     10 C         144.0348  137.9610  161.5470 C.3     1  UNL1        0.1153
     11 C         144.0125  139.1854  162.4132 C.ar    1  UNL1        0.0782
     12 C         144.1305  140.5457  161.7923 C.ar    1  UNL1        0.0562
     13 C         144.1082  141.7700  162.6586 C.ar    1  UNL1        0.1752
     14 C         143.9679  141.6341  164.1459 C.ar    1  UNL1        0.1914
     15 C         143.8498  140.2737  164.7668 C.ar    1  UNL1        0.1384
     16 N         143.8721  139.0493  163.9004 N.ar    1  UNL1       -0.2434
     17 O         143.9456  142.8584  165.0122 O.3     1  UNL1       -0.4668
     18 C         144.0637  144.2187  164.3913 C.3     1  UNL1        0.2527
     19 C         144.2040  144.3548  162.9041 C.3     1  UNL1        0.2526
     20 O         144.2263  143.1304  162.0377 O.3     1  UNL1       -0.4683
     21 C         137.6069  140.3957  161.6181 C.3     1  UNL1        0.0970
     22 C         137.3685  141.2582  162.8220 C.3     1  UNL1        0.1264
     23 C         139.1875  140.2795  166.8199 C.ar    1  UNL1        0.1403
     24 C         140.2974  141.1275  167.3666 C.ar    1  UNL1        0.0385
     25 C         140.8010  142.3018  166.5807 C.ar    1  UNL1        0.0237
     26 C         140.1946  142.6280  165.2481 C.ar    1  UNL1        0.0975
     27 N         140.6982  143.8022  164.4623 N.ar    1  UNL1       -0.2374
     28 C         140.0919  144.1285  163.1296 C.ar    1  UNL1        0.1594
     29 C         138.9820  143.2804  162.5828 C.ar    1  UNL1        0.2803
     30 O         138.3756  143.6067  161.2502 O.2     1  UNL1       -0.2653
     31 N         138.4784  142.1062  163.3687 N.ar    1  UNL1       -0.2913
     32 C         139.0847  141.7800  164.7014 C.ar    1  UNL1        0.0832
     33 C         138.5812  140.6058  165.4873 C.ar    1  UNL1        0.0557
     34 C         137.5467  138.2818  167.0781 C.3     1  UNL1        0.2525
     35 O         138.6839  139.1053  167.6057 O.3     1  UNL1       -0.4714
@<TRIPOS>BOND
     1    34    35    1
     2    35    23    1
     3    23    24   ar
     4    24    25   ar
     5    25    26   ar
     6    26    27   ar
     7    27    28   ar
     8    28    29   ar
     9    29    30    2
    10    29    31   ar
    11    31    22    1
    12    22    21    1
    13    21     1    1
    14     1     2    1
    15     2     3    1
    16     3     4    1
    17     4     8    1
    18     8    10    1
    19    10    11    1
    20    11    12   ar
    21    12    13   ar
    22    13    14   ar
    23    14    15   ar
    24    15    16   ar
    25    14    17    1
    26    17    18    1
    27    18    19    1
    28    19    20    1
    29     4     5    1
    30     5     6    1
    31     5     7    1
    32    31    32   ar
    33    32    33   ar
    34    33    23   ar
    35    32    26   ar
    36     7     1    1
    37    16    11   ar
    38    20    13    1
    39     8     9    1
@<TRIPOS>MOLECULE
*****
 35 39 0 0 0
SMALL
GASTEIGER

@<TRIPOS>ATOM
      1 N         141.0402  144.7256  162.8392 N.3     1  UNL1       -0.2687
      2 C         141.3207  144.1331  161.4900 C.3     1  UNL1        0.0737
      3 C         142.6813  143.5828  161.1807 C.3     1  UNL1        0.0359
      4 C         143.7615  143.6250  162.2206 C.3     1  UNL1        0.0901
      5 C         143.4810  144.2175  163.5698 C.3     1  UNL1        0.1911
      6 F         144.5613  144.2598  164.6097 F       1  UNL1       -0.2343
      7 C         142.1204  144.7678  163.8791 C.3     1  UNL1        0.1092
      8 N         145.1223  143.0747  161.9114 N.3     1  UNL1       -0.2913
      9 H         145.7871  143.8346  162.0560 H       1  UNL1        0.1236
     10 C         145.6439  141.8922  162.6728 C.3     1  UNL1        0.1153
     11 C         144.6877  140.8940  163.2551 C.ar    1  UNL1        0.0782
     12 C         143.7863  140.1042  162.3531 C.ar    1  UNL1        0.0562
     13 C         142.8301  139.1060  162.9355 C.ar    1  UNL1        0.1752
     14 C         142.7752  138.8976  164.4200 C.ar    1  UNL1        0.1914
     15 C         143.6765  139.6875  165.3220 C.ar    1  UNL1        0.1384
     16 N         144.6328  140.6857  164.7395 N.ar    1  UNL1       -0.2434
     17 O         141.8190  137.8994  165.0023 O.3     1  UNL1       -0.4668
     18 C         140.9176  137.1095  164.1003 C.3     1  UNL1        0.2527
     19 C         140.9725  137.3179  162.6159 C.3     1  UNL1        0.2526
     20 O         141.9287  138.3161  162.0334 O.3     1  UNL1       -0.4683
     21 C         139.6794  145.2759  163.1484 C.3     1  UNL1        0.0970
     22 C         138.8155  144.6065  164.1759 C.3     1  UNL1        0.1264
     23 C         140.5203  142.2429  167.6047 C.ar    1  UNL1        0.1403
     24 C         140.3952  140.7482  167.6208 C.ar    1  UNL1        0.0385
     25 C         139.7019  140.0414  166.4939 C.ar    1  UNL1        0.0237
     26 C         139.1337  140.8293  165.3510 C.ar    1  UNL1        0.0975
     27 N         138.4404  140.1225  164.2242 N.ar    1  UNL1       -0.2374
     28 C         137.8721  140.9103  163.0813 C.ar    1  UNL1        0.1594
     29 C         137.9971  142.4051  163.0651 C.ar    1  UNL1        0.2803
     30 O         137.4289  143.1929  161.9222 O.2     1  UNL1       -0.2653
     31 N         138.6904  143.1119  164.1920 N.ar    1  UNL1       -0.2913
     32 C         139.2587  142.3239  165.3349 C.ar    1  UNL1        0.0832
     33 C         139.9520  143.0308  166.4618 C.ar    1  UNL1        0.0557
     34 C         140.4163  143.7491  169.7190 C.3     1  UNL1        0.2525
     35 O         141.2136  142.9497  168.7315 O.3     1  UNL1       -0.4714
@<TRIPOS>BOND
     1    34    35    1
     2    35    23    1
     3    23    24   ar
     4    24    25   ar
     5    25    26   ar
     6    26    27   ar
     7    27    28   ar
     8    28    29   ar
     9    29    30    2
    10    29    31   ar
    11    31    22    1
    12    22    21    1
    13    21     1    1
    14     1     2    1
    15     2     3    1
    16     3     4    1
    17     4     8    1
    18     8    10    1
    19    10    11    1
    20    11    12   ar
    21    12    13   ar
    22    13    14   ar
    23    14    15   ar
    24    15    16   ar
    25    14    17    1
    26    17    18    1
    27    18    19    1
    28    19    20    1
    29     4     5    1
    30     5     6    1
    31     5     7    1
    32    31    32   ar
    33    32    33   ar
    34    33    23   ar
    35    32    26   ar
    36     7     1    1
    37    16    11   ar
    38    20    13    1
    39     8     9    1
@<TRIPOS>MOLECULE
*****
 35 39 0 0 0
SMALL
GASTEIGER

@<TRIPOS>ATOM
      1 N         141.9482  138.1381  164.0307 N.3     1  UNL1       -0.2687
      2 C         142.8352  138.5981  165.1495 C.3     1  UNL1        0.0737
      3 C         144.0626  139.4064  164.8495 C.3     1  UNL1        0.0359
      4 C         144.4030  139.7548  163.4309 C.3     1  UNL1        0.0901
      5 C         143.5160  139.2949  162.3121 C.3     1  UNL1        0.1911
      6 F         143.8564  139.6433  160.8933 F       1  UNL1       -0.2343
      7 C         142.2886  138.4865  162.6120 C.3     1  UNL1        0.1092
      8 N         145.6305  140.5632  163.1309 N.3     1  UNL1       -0.2913
      9 H         145.7827  140.5048  162.1240 H       1  UNL1        0.1236
     10 C         145.6770  142.0183  163.4921 C.3     1  UNL1        0.1153
     11 C         144.4774  142.8879  163.2581 C.ar    1  UNL1        0.0782
     12 C         143.9840  143.1250  161.8616 C.ar    1  UNL1        0.0562
     13 C         142.7844  143.9946  161.6275 C.ar    1  UNL1        0.1752
     14 C         142.0782  144.6271  162.7900 C.ar    1  UNL1        0.1914
     15 C         142.5717  144.3900  164.1865 C.ar    1  UNL1        0.1384
     16 N         143.7713  143.5203  164.4206 N.ar    1  UNL1       -0.2434
     17 O         140.8787  145.4967  162.5560 O.3     1  UNL1       -0.4668
     18 C         140.3852  145.7338  161.1595 C.3     1  UNL1        0.2527
     19 C         141.0913  145.1014  159.9970 C.3     1  UNL1        0.2526
     20 O         142.2910  144.2318  160.2310 O.3     1  UNL1       -0.4683
     21 C         140.7207  137.3297  164.3307 C.3     1  UNL1        0.0970
     22 C         139.4689  138.0119  164.7971 C.3     1  UNL1        0.1264
     23 C         140.2195  142.0362  166.6658 C.ar    1  UNL1        0.1403
     24 C         139.7440  143.2822  165.9794 C.ar    1  UNL1        0.0385
     25 C         139.0184  143.1869  164.6701 C.ar    1  UNL1        0.0237
     26 C         138.7682  141.8455  164.0472 C.ar    1  UNL1        0.0975
     27 N         138.0426  141.7502  162.7378 N.ar    1  UNL1       -0.2374
     28 C         137.7924  140.4088  162.1149 C.ar    1  UNL1        0.1594
     29 C         138.2678  139.1627  162.8014 C.ar    1  UNL1        0.2803
     30 O         138.0177  137.8213  162.1785 O.2     1  UNL1       -0.2653
     31 N         138.9935  139.2580  164.1107 N.ar    1  UNL1       -0.2913
     32 C         139.2437  140.5995  164.7336 C.ar    1  UNL1        0.0832
     33 C         139.9693  140.6948  166.0429 C.ar    1  UNL1        0.0557
     34 C         142.4045  141.7932  168.0502 C.3     1  UNL1        0.2525
     35 O         140.9451  142.1315  167.9752 O.3     1  UNL1       -0.4714
@<TRIPOS>BOND
     1    34    35    1
     2    35    23    1
     3    23    24   ar
     4    24    25   ar
     5    25    26   ar
     6    26    27   ar
     7    27    28   ar
     8    28    29   ar
     9    29    30    2
    10    29    31   ar
    11    31    22    1
    12    22    21    1
    13    21     1    1
    14     1     2    1
    15     2     3    1
    16     3     4    1
    17     4     8    1
    18     8    10    1
    19    10    11    1
    20    11    12   ar
    21    12    13   ar
    22    13    14   ar
    23    14    15   ar
    24    15    16   ar
    25    14    17    1
    26    17    18    1
    27    18    19    1
    28    19    20    1
    29     4     5    1
    30     5     6    1
    31     5     7    1
    32    31    32   ar
    33    32    33   ar
    34    33    23   ar
    35    32    26   ar
    36     7     1    1
    37    16    11   ar
    38    20    13    1
    39     8     9    1
@<TRIPOS>MOLECULE
*****
 35 39 0 0 0
SMALL
GASTEIGER

@<TRIPOS>ATOM
      1 N         139.8199  138.2626  164.2612 N.3     1  UNL1       -0.2687
      2 C         139.1790  139.1344  165.3001 C.3     1  UNL1        0.0737
      3 C         138.2263  140.2168  164.8870 C.3     1  UNL1        0.0359
      4 C         137.9144  140.4273  163.4350 C.3     1  UNL1        0.0901
      5 C         138.5552  139.5554  162.3961 C.3     1  UNL1        0.1911
      6 F         138.2433  139.7660  160.9440 F       1  UNL1       -0.2343
      7 C         139.5079  138.4731  162.8093 C.3     1  UNL1        0.1092
      8 N         136.9616  141.5097  163.0218 N.3     1  UNL1       -0.2913
      9 H         136.1998  141.5062  163.7001 H       1  UNL1        0.1236
     10 C         137.4386  142.9277  162.9137 C.3     1  UNL1        0.1153
     11 C         138.8741  143.2131  162.5855 C.ar    1  UNL1        0.0782
     12 C         139.7622  143.8616  163.6058 C.ar    1  UNL1        0.0562
     13 C         141.1977  144.1470  163.2776 C.ar    1  UNL1        0.1752
     14 C         141.7452  143.7840  161.9291 C.ar    1  UNL1        0.1914
     15 C         140.8572  143.1356  160.9088 C.ar    1  UNL1        0.1384
     16 N         139.4216  142.8502  161.2370 N.ar    1  UNL1       -0.2434
     17 O         143.1808  144.0694  161.6008 O.3     1  UNL1       -0.4668
     18 C         144.0688  144.7179  162.6211 C.3     1  UNL1        0.2527
     19 C         143.5213  145.0808  163.9696 C.3     1  UNL1        0.2526
     20 O         142.0857  144.7954  164.2979 O.3     1  UNL1       -0.4683
     21 C         140.7726  137.1801  164.6745 C.3     1  UNL1        0.0970
     22 C         142.1781  137.5277  165.0666 C.3     1  UNL1        0.1264
     23 C         142.3762  140.7464  168.2051 C.ar    1  UNL1        0.1403
     24 C         142.9389  142.0941  167.8628 C.ar    1  UNL1        0.0385
     25 C         143.4355  142.3688  166.4743 C.ar    1  UNL1        0.0237
     26 C         143.3696  141.2959  165.4282 C.ar    1  UNL1        0.0975
     27 N         143.8662  141.5707  164.0397 N.ar    1  UNL1       -0.2374
     28 C         143.8002  140.4978  162.9936 C.ar    1  UNL1        0.1594
     29 C         143.2375  139.1501  163.3358 C.ar    1  UNL1        0.2803
     30 O         143.1715  138.0772  162.2897 O.2     1  UNL1       -0.2653
     31 N         142.7408  138.8753  164.7243 N.ar    1  UNL1       -0.2913
     32 C         142.8069  139.9483  165.7705 C.ar    1  UNL1        0.0832
     33 C         142.3102  139.6735  167.1589 C.ar    1  UNL1        0.0557
     34 C         141.7998  141.5850  170.5956 C.3     1  UNL1        0.2525
     35 O         141.8795  140.4717  169.5936 O.3     1  UNL1       -0.4714
@<TRIPOS>BOND
     1    34    35    1
     2    35    23    1
     3    23    24   ar
     4    24    25   ar
     5    25    26   ar
     6    26    27   ar
     7    27    28   ar
     8    28    29   ar
     9    29    30    2
    10    29    31   ar
    11    31    22    1
    12    22    21    1
    13    21     1    1
    14     1     2    1
    15     2     3    1
    16     3     4    1
    17     4     8    1
    18     8    10    1
    19    10    11    1
    20    11    12   ar
    21    12    13   ar
    22    13    14   ar
    23    14    15   ar
    24    15    16   ar
    25    14    17    1
    26    17    18    1
    27    18    19    1
    28    19    20    1
    29     4     5    1
    30     5     6    1
    31     5     7    1
    32    31    32   ar
    33    32    33   ar
    34    33    23   ar
    35    32    26   ar
    36     7     1    1
    37    16    11   ar
    38    20    13    1
    39     8     9    1
@<TRIPOS>MOLECULE
*****
 35 39 0 0 0
SMALL
GASTEIGER

@<TRIPOS>ATOM
      1 N         140.1530  143.9266  164.1772 N.3     1  UNL1       -0.2687
      2 C         140.6287  142.9596  165.2206 C.3     1  UNL1        0.0737
      3 C         142.0985  142.7629  165.4463 C.3     1  UNL1        0.0359
      4 C         143.0925  143.5332  164.6288 C.3     1  UNL1        0.0901
      5 C         142.6168  144.5002  163.5854 C.3     1  UNL1        0.1911
      6 F         143.6110  145.2705  162.7679 F       1  UNL1       -0.2343
      7 C         141.1471  144.6969  163.3597 C.3     1  UNL1        0.1092
      8 N         144.5624  143.3365  164.8545 N.3     1  UNL1       -0.2913
      9 H         144.7026  143.2971  165.8641 H       1  UNL1        0.1236
     10 C         145.2569  142.1404  164.2740 C.3     1  UNL1        0.1153
     11 C         144.7790  141.5501  162.9805 C.ar    1  UNL1        0.0782
     12 C         144.3464  140.1149  162.9255 C.ar    1  UNL1        0.0562
     13 C         143.8685  139.5247  161.6320 C.ar    1  UNL1        0.1752
     14 C         143.8231  140.3697  160.3934 C.ar    1  UNL1        0.1914
     15 C         144.2557  141.8049  160.4484 C.ar    1  UNL1        0.1384
     16 N         144.7336  142.3951  161.7420 N.ar    1  UNL1       -0.2434
     17 O         143.3452  139.7794  159.0999 O.3     1  UNL1       -0.4668
     18 C         142.9126  138.3442  159.0449 C.3     1  UNL1        0.2527
     19 C         142.9579  137.4992  160.2834 C.3     1  UNL1        0.2526
     20 O         143.4359  138.0895  161.5770 O.3     1  UNL1       -0.4683
     21 C         138.6831  144.1233  163.9515 C.3     1  UNL1        0.0970
     22 C         137.7461  142.9565  164.0527 C.3     1  UNL1        0.1264
     23 C         138.5394  139.0471  166.1353 C.ar    1  UNL1        0.1403
     24 C         138.7958  137.8073  165.3308 C.ar    1  UNL1        0.0385
     25 C         138.7877  137.8706  163.8322 C.ar    1  UNL1        0.0237
     26 C         138.5233  139.1737  163.1380 C.ar    1  UNL1        0.0975
     27 N         138.5152  139.2370  161.6394 N.ar    1  UNL1       -0.2374
     28 C         138.2507  140.5401  160.9452 C.ar    1  UNL1        0.1594
     29 C         137.9943  141.7800  161.7496 C.ar    1  UNL1        0.2803
     30 O         137.7299  143.0831  161.0554 O.2     1  UNL1       -0.2653
     31 N         138.0024  141.7167  163.2483 N.ar    1  UNL1       -0.2913
     32 C         138.2669  140.4135  163.9424 C.ar    1  UNL1        0.0832
     33 C         138.2750  140.3502  165.4411 C.ar    1  UNL1        0.0557
     34 C         139.3897  139.9438  168.4206 C.3     1  UNL1        0.2525
     35 O         138.5475  138.9838  167.6339 O.3     1  UNL1       -0.4714
@<TRIPOS>BOND
     1    34    35    1
     2    35    23    1
     3    23    24   ar
     4    24    25   ar
     5    25    26   ar
     6    26    27   ar
     7    27    28   ar
     8    28    29   ar
     9    29    30    2
    10    29    31   ar
    11    31    22    1
    12    22    21    1
    13    21     1    1
    14     1     2    1
    15     2     3    1
    16     3     4    1
    17     4     8    1
    18     8    10    1
    19    10    11    1
    20    11    12   ar
    21    12    13   ar
    22    13    14   ar
    23    14    15   ar
    24    15    16   ar
    25    14    17    1
    26    17    18    1
    27    18    19    1
    28    19    20    1
    29     4     5    1
    30     5     6    1
    31     5     7    1
    32    31    32   ar
    33    32    33   ar
    34    33    23   ar
    35    32    26   ar
    36     7     1    1
    37    16    11   ar
    38    20    13    1
    39     8     9    1
