@<TRIPOS>MOLECULE
*****
 30 34 0 0 0
SMALL
GASTEIGER

@<TRIPOS>ATOM
      1 C         142.6239  142.9917  162.2677 C.ar    1  UNL1        0.1522
      2 C         141.6171  143.8117  163.0187 C.ar    1  UNL1        0.0715
      3 C         140.7188  144.7581  162.2789 C.ar    1  UNL1        0.1346
      4 N         140.8272  144.8845  160.7882 N.ar    1  UNL1       -0.1980
      5 N         140.0823  145.7270  159.7956 N.ar    1  UNL1       -0.1602
      6 C         140.6288  145.4277  158.4311 C.ar    1  UNL1        0.1339
      7 C         141.7114  144.4002  158.5804 C.ar    1  UNL1        0.1250
      8 C         141.8340  144.0645  160.0372 C.ar    1  UNL1        0.1778
      9 N         142.7323  143.1182  160.7770 N.ar    1  UNL1       -0.2082
     10 C         141.5859  139.1104  165.0199 C.ar    1  UNL1        0.0518
     11 C         142.8108  138.4458  165.5747 C.ar    1  UNL1        0.0148
     12 C         144.1704  138.9945  165.2579 C.ar    1  UNL1        0.0028
     13 C         144.3052  140.2078  164.3863 C.ar    1  UNL1        0.0177
     14 C         145.5042  140.9699  163.9052 C.ar    1  UNL1        0.0205
     15 C         145.0203  142.1055  163.0530 C.ar    1  UNL1        0.0814
     16 N         143.5223  142.0453  163.0074 N.ar    1  UNL1       -0.2902
     17 C         143.0803  140.8724  163.8315 C.ar    1  UNL1        0.0666
     18 C         141.7206  140.3237  164.1483 C.ar    1  UNL1        0.0322
     19 C         137.9699  138.7385  166.6124 C.3     1  UNL1        0.0949
     20 C         139.3296  139.2872  166.2956 C.2     1  UNL1        0.2266
     21 O         139.7925  140.5613  166.9379 O.2     1  UNL1       -0.2748
     22 N         140.2263  138.5618  165.3367 N.am    1  UNL1       -0.2839
     23 H         139.9225  137.7255  164.9152 H       1  UNL1        0.1549
     24 N         139.7120  145.5781  163.0300 N.pl3   1  UNL1       -0.3196
     25 H         139.5640  146.5203  162.7859 H       1  UNL1        0.1481
     26 C         138.9308  144.9626  164.1528 C.3     1  UNL1        0.0705
     27 C         138.5912  144.8898  165.6120 C.3     1  UNL1        0.0212
     28 C         137.9171  143.9692  164.6383 C.3     1  UNL1        0.0212
     29 C         142.5279  143.8118  157.4682 C.1     1  UNL1        0.1052
     30 N         143.3445  143.2233  156.3561 N.1     1  UNL1       -0.1907
@<TRIPOS>BOND
     1    19    20    1
     2    20    21    2
     3    20    22   am
     4    22    10    1
     5    10    11   ar
     6    11    12   ar
     7    12    13   ar
     8    13    14   ar
     9    14    15   ar
    10    15    16   ar
    11    16     1    1
    12     1     2   ar
    13     2     3   ar
    14     3    24    1
    15    24    26    1
    16    26    27    1
    17    27    28    1
    18     3     4   ar
    19     4     5   ar
    20     5     6   ar
    21     6     7   ar
    22     7    29    1
    23    29    30    3
    24     7     8   ar
    25     8     9   ar
    26    16    17   ar
    27    17    18   ar
    28    18    10   ar
    29    17    13   ar
    30     9     1   ar
    31    28    26    1
    32     8     4   ar
    33    22    23    1
    34    24    25    1
@<TRIPOS>MOLECULE
*****
 30 34 0 0 0
SMALL
GASTEIGER

@<TRIPOS>ATOM
      1 C         141.0733  142.0520  166.1499 C.ar    1  UNL1        0.1522
      2 C         141.8509  141.0084  165.4041 C.ar    1  UNL1        0.0715
      3 C         142.5430  139.9097  166.1549 C.ar    1  UNL1        0.1346
      4 N         142.4576  139.8545  167.6514 N.ar    1  UNL1       -0.1980
      5 N         143.0310  138.8983  168.6549 N.ar    1  UNL1       -0.1602
      6 C         142.6077  139.3510  170.0209 C.ar    1  UNL1        0.1339
      7 C         141.7727  140.5869  169.8617 C.ar    1  UNL1        0.1250
      8 C         141.6799  140.8980  168.3973 C.ar    1  UNL1        0.1778
      9 N         140.9878  141.9967  167.6465 N.ar    1  UNL1       -0.2082
     10 C         142.1481  144.1724  161.8996 C.ar    1  UNL1        0.0518
     11 C         141.1697  145.2441  161.5199 C.ar    1  UNL1        0.0148
     12 C         140.0127  145.5571  162.4216 C.ar    1  UNL1        0.0028
     13 C         139.8339  144.7984  163.7032 C.ar    1  UNL1        0.0177
     14 C         138.7981  144.8848  164.7847 C.ar    1  UNL1        0.0205
     15 C         139.1363  143.8665  165.8329 C.ar    1  UNL1        0.0814
     16 N         140.3811  143.1507  165.3992 N.ar    1  UNL1       -0.2902
     17 C         140.8123  143.7267  164.0830 C.ar    1  UNL1        0.0666
     18 C         141.9693  143.4137  163.1812 C.ar    1  UNL1        0.0322
     19 C         144.3408  142.4588  159.0702 C.3     1  UNL1        0.0949
     20 C         143.1837  142.7718  159.9720 C.2     1  UNL1        0.2266
     21 O         141.9052  141.9972  159.8479 O.2     1  UNL1       -0.2748
     22 N         143.3052  143.8594  160.9979 N.am    1  UNL1       -0.2839
     23 H         144.1443  144.3678  161.0793 H       1  UNL1        0.1549
     24 N         143.3207  138.8661  165.4091 N.pl3   1  UNL1       -0.3196
     25 H         143.4761  137.9833  165.8163 H       1  UNL1        0.1481
     26 C         143.8616  139.1674  164.0429 C.3     1  UNL1        0.0705
     27 C         144.6463  140.0552  163.1232 C.3     1  UNL1        0.0212
     28 C         144.0136  138.8015  162.5961 C.3     1  UNL1        0.0212
     29 C         141.1414  141.3735  170.9719 C.1     1  UNL1        0.1052
     30 N         140.5101  142.1601  172.0822 N.1     1  UNL1       -0.1907
@<TRIPOS>BOND
     1    19    20    1
     2    20    21    2
     3    20    22   am
     4    22    10    1
     5    10    11   ar
     6    11    12   ar
     7    12    13   ar
     8    13    14   ar
     9    14    15   ar
    10    15    16   ar
    11    16     1    1
    12     1     2   ar
    13     2     3   ar
    14     3    24    1
    15    24    26    1
    16    26    27    1
    17    27    28    1
    18     3     4   ar
    19     4     5   ar
    20     5     6   ar
    21     6     7   ar
    22     7    29    1
    23    29    30    3
    24     7     8   ar
    25     8     9   ar
    26    16    17   ar
    27    17    18   ar
    28    18    10   ar
    29    17    13   ar
    30     9     1   ar
    31    28    26    1
    32     8     4   ar
    33    22    23    1
    34    24    25    1
@<TRIPOS>MOLECULE
*****
 30 34 0 0 0
SMALL
GASTEIGER

@<TRIPOS>ATOM
      1 C         141.0299  140.5273  165.3969 C.ar    1  UNL1        0.1522
      2 C         142.1557  141.4097  164.9451 C.ar    1  UNL1        0.0715
      3 C         142.9999  142.1256  165.9573 C.ar    1  UNL1        0.1346
      4 N         142.7183  141.9593  167.4212 N.ar    1  UNL1       -0.1980
      5 N         143.3752  142.5338  168.6413 N.ar    1  UNL1       -0.1602
      6 C         142.6554  142.0065  169.8470 C.ar    1  UNL1        0.1339
      7 C         141.5536  141.1062  169.3722 C.ar    1  UNL1        0.1250
      8 C         141.5925  141.0770  167.8730 C.ar    1  UNL1        0.1778
      9 N         140.7483  140.3610  166.8608 N.ar    1  UNL1       -0.2082
     10 C         138.9292  142.1209  161.3024 C.ar    1  UNL1        0.0518
     11 C         138.1651  141.0483  160.5846 C.ar    1  UNL1        0.0148
     12 C         138.1123  139.6595  161.1489 C.ar    1  UNL1        0.0028
     13 C         138.8236  139.3433  162.4310 C.ar    1  UNL1        0.0177
     14 C         138.9491  138.0757  163.2231 C.ar    1  UNL1        0.0205
     15 C         139.7908  138.3649  164.4305 C.ar    1  UNL1        0.0814
     16 N         140.1856  139.8113  164.3847 N.ar    1  UNL1       -0.2902
     17 C         139.5878  140.4160  163.1489 C.ar    1  UNL1        0.0666
     18 C         139.6406  141.8048  162.5846 C.ar    1  UNL1        0.0322
     19 C         140.2954  145.4009  159.5346 C.3     1  UNL1        0.0949
     20 C         140.2426  144.0121  160.0989 C.2     1  UNL1        0.2266
     21 O         141.4503  143.1257  160.0239 O.2     1  UNL1       -0.2748
     22 N         138.9821  143.5098  160.7382 N.am    1  UNL1       -0.2839
     23 H         138.1894  144.0916  160.7874 H       1  UNL1        0.1549
     24 N         144.1257  143.0080  165.5056 N.pl3   1  UNL1       -0.3196
     25 H         144.9569  143.0532  166.0311 H       1  UNL1        0.1481
     26 C         143.9850  143.8213  164.2532 C.3     1  UNL1        0.0705
     27 C         144.1412  143.9564  162.7675 C.3     1  UNL1        0.0212
     28 C         143.5851  145.0953  163.5697 C.3     1  UNL1        0.0212
     29 C         140.5833  140.3651  170.2436 C.1     1  UNL1        0.1052
     30 N         139.6130  139.6240  171.1150 N.1     1  UNL1       -0.1907
@<TRIPOS>BOND
     1    19    20    1
     2    20    21    2
     3    20    22   am
     4    22    10    1
     5    10    11   ar
     6    11    12   ar
     7    12    13   ar
     8    13    14   ar
     9    14    15   ar
    10    15    16   ar
    11    16     1    1
    12     1     2   ar
    13     2     3   ar
    14     3    24    1
    15    24    26    1
    16    26    27    1
    17    27    28    1
    18     3     4   ar
    19     4     5   ar
    20     5     6   ar
    21     6     7   ar
    22     7    29    1
    23    29    30    3
    24     7     8   ar
    25     8     9   ar
    26    16    17   ar
    27    17    18   ar
    28    18    10   ar
    29    17    13   ar
    30     9     1   ar
    31    28    26    1
    32     8     4   ar
    33    22    23    1
    34    24    25    1
@<TRIPOS>MOLECULE
*****
 30 34 0 0 0
SMALL
GASTEIGER

@<TRIPOS>ATOM
      1 C         142.2734  142.1601  162.3003 C.ar    1  UNL1        0.1522
      2 C         141.4298  143.1482  163.0499 C.ar    1  UNL1        0.0715
      3 C         140.8978  144.3635  162.3499 C.ar    1  UNL1        0.1346
      4 N         141.2094  144.5907  160.9003 N.ar    1  UNL1       -0.1980
      5 N         140.8277  145.6881  159.9516 N.ar    1  UNL1       -0.1602
      6 C         141.4353  145.3782  158.6157 C.ar    1  UNL1        0.1339
      7 C         142.1927  144.0892  158.7387 C.ar    1  UNL1        0.1250
      8 C         142.0530  143.6026  160.1507 C.ar    1  UNL1        0.1778
      9 N         142.5850  142.3873  160.8507 N.ar    1  UNL1       -0.2082
     10 C         142.0578  140.8307  166.9803 C.ar    1  UNL1        0.0518
     11 C         142.7330  139.5175  167.2441 C.ar    1  UNL1        0.0148
     12 C         143.3793  138.7668  166.1178 C.ar    1  UNL1        0.0028
     13 C         143.3503  139.3292  164.7275 C.ar    1  UNL1        0.0177
     14 C         143.8979  138.8200  163.4272 C.ar    1  UNL1        0.0205
     15 C         143.5612  139.8185  162.3597 C.ar    1  UNL1        0.0814
     16 N         142.8054  140.9448  163.0002 N.ar    1  UNL1       -0.2902
     17 C         142.6751  140.6423  164.4637 C.ar    1  UNL1        0.0666
     18 C         142.0289  141.3931  165.5900 C.ar    1  UNL1        0.0322
     19 C         141.5828  143.2587  170.0833 C.3     1  UNL1        0.0949
     20 C         142.2291  142.5080  168.9569 C.2     1  UNL1        0.2266
     21 O         143.6930  142.6838  168.6809 O.2     1  UNL1       -0.2748
     22 N         141.4115  141.5814  168.1066 N.am    1  UNL1       -0.2839
     23 H         140.4507  141.4660  168.2878 H       1  UNL1        0.1549
     24 N         140.0542  145.3516  163.0995 N.pl3   1  UNL1       -0.3196
     25 H         140.1239  146.3124  162.8964 H       1  UNL1        0.1481
     26 C         139.1045  144.8760  164.1586 C.3     1  UNL1        0.0705
     27 C         138.6607  144.8555  165.5912 C.3     1  UNL1        0.0212
     28 C         137.9032  144.0724  164.5603 C.3     1  UNL1        0.0212
     29 C         142.9556  143.4068  157.6423 C.1     1  UNL1        0.1052
     30 N         143.7186  142.7244  156.5458 N.1     1  UNL1       -0.1907
@<TRIPOS>BOND
     1    19    20    1
     2    20    21    2
     3    20    22   am
     4    22    10    1
     5    10    11   ar
     6    11    12   ar
     7    12    13   ar
     8    13    14   ar
     9    14    15   ar
    10    15    16   ar
    11    16     1    1
    12     1     2   ar
    13     2     3   ar
    14     3    24    1
    15    24    26    1
    16    26    27    1
    17    27    28    1
    18     3     4   ar
    19     4     5   ar
    20     5     6   ar
    21     6     7   ar
    22     7    29    1
    23    29    30    3
    24     7     8   ar
    25     8     9   ar
    26    16    17   ar
    27    17    18   ar
    28    18    10   ar
    29    17    13   ar
    30     9     1   ar
    31    28    26    1
    32     8     4   ar
    33    22    23    1
    34    24    25    1
@<TRIPOS>MOLECULE
*****
 30 34 0 0 0
SMALL
GASTEIGER

@<TRIPOS>ATOM
      1 C         141.7639  142.4361  160.8048 C.ar    1  UNL1        0.1522
      2 C         142.6908  141.5130  161.5387 C.ar    1  UNL1        0.0715
      3 C         143.4977  140.5015  160.7801 C.ar    1  UNL1        0.1346
      4 N         143.3778  140.4130  159.2875 N.ar    1  UNL1       -0.1980
      5 N         144.0414  139.5238  158.2782 N.ar    1  UNL1       -0.1602
      6 C         143.5246  139.8973  156.9204 C.ar    1  UNL1        0.1339
      7 C         142.5415  141.0174  157.0906 C.ar    1  UNL1        0.1250
      8 C         142.4508  141.3361  158.5535 C.ar    1  UNL1        0.1778
      9 N         141.6439  142.3476  159.3122 N.ar    1  UNL1       -0.2082
     10 C         138.3189  141.8644  164.1992 C.ar    1  UNL1        0.0518
     11 C         137.7693  143.1685  164.6963 C.ar    1  UNL1        0.0148
     12 C         138.2911  144.4617  164.1437 C.ar    1  UNL1        0.0028
     13 C         139.3625  144.4507  163.0940 C.ar    1  UNL1        0.0177
     14 C         140.0675  145.5578  162.3677 C.ar    1  UNL1        0.0205
     15 C         141.0529  144.9379  161.4218 C.ar    1  UNL1        0.0814
     16 N         140.9569  143.4477  161.5634 N.ar    1  UNL1       -0.2902
     17 C         139.9121  143.1466  162.5969 C.ar    1  UNL1        0.0666
     18 C         139.3904  141.8534  163.1495 C.ar    1  UNL1        0.0322
     19 C         137.9516  138.6376  166.4802 C.3     1  UNL1        0.0949
     20 C         138.4734  139.9308  165.9276 C.2     1  UNL1        0.2266
     21 O         139.6715  140.5837  166.5509 O.2     1  UNL1       -0.2748
     22 N         137.7971  140.5712  164.7518 N.am    1  UNL1       -0.2839
     23 H         137.0108  140.1427  164.3428 H       1  UNL1        0.1549
     24 N         144.4247  139.5784  161.5140 N.pl3   1  UNL1       -0.3196
     25 H         145.0448  139.0019  161.0117 H       1  UNL1        0.1481
     26 C         144.4069  139.5337  163.0132 C.3     1  UNL1        0.0705
     27 C         143.7553  139.0984  164.2922 C.3     1  UNL1        0.0212
     28 C         145.0278  139.8917  164.3309 C.3     1  UNL1        0.0212
     29 C         141.7825  141.6990  155.9910 C.1     1  UNL1        0.1052
     30 N         141.0235  142.3807  154.8913 N.1     1  UNL1       -0.1907
@<TRIPOS>BOND
     1    19    20    1
     2    20    21    2
     3    20    22   am
     4    22    10    1
     5    10    11   ar
     6    11    12   ar
     7    12    13   ar
     8    13    14   ar
     9    14    15   ar
    10    15    16   ar
    11    16     1    1
    12     1     2   ar
    13     2     3   ar
    14     3    24    1
    15    24    26    1
    16    26    27    1
    17    27    28    1
    18     3     4   ar
    19     4     5   ar
    20     5     6   ar
    21     6     7   ar
    22     7    29    1
    23    29    30    3
    24     7     8   ar
    25     8     9   ar
    26    16    17   ar
    27    17    18   ar
    28    18    10   ar
    29    17    13   ar
    30     9     1   ar
    31    28    26    1
    32     8     4   ar
    33    22    23    1
    34    24    25    1
@<TRIPOS>MOLECULE
*****
 30 34 0 0 0
SMALL
GASTEIGER

@<TRIPOS>ATOM
      1 C         140.7122  142.1556  165.2200 C.ar    1  UNL1        0.1522
      2 C         140.6516  142.1914  166.7183 C.ar    1  UNL1        0.0715
      3 C         141.4117  141.1800  167.5240 C.ar    1  UNL1        0.1346
      4 N         142.2323  140.1327  166.8314 N.ar    1  UNL1       -0.1980
      5 N         143.0816  139.0133  167.3565 N.ar    1  UNL1       -0.1602
      6 C         143.6670  138.2856  166.1827 C.ar    1  UNL1        0.1339
      7 C         143.1795  138.9553  164.9321 C.ar    1  UNL1        0.1250
      8 C         142.2929  140.0968  165.3330 C.ar    1  UNL1        0.1778
      9 N         141.5328  141.1083  164.5274 N.ar    1  UNL1       -0.2082
     10 C         141.7627  144.2774  160.9643 C.ar    1  UNL1        0.0518
     11 C         140.7047  145.2425  160.5182 C.ar    1  UNL1        0.0148
     12 C         139.4857  145.4630  161.3641 C.ar    1  UNL1        0.0028
     13 C         139.3248  144.7183  162.6562 C.ar    1  UNL1        0.0177
     14 C         138.2402  144.7287  163.6923 C.ar    1  UNL1        0.0205
     15 C         138.6279  143.7699  164.7788 C.ar    1  UNL1        0.0814
     16 N         139.9521  143.1670  164.4142 N.ar    1  UNL1       -0.2902
     17 C         140.3828  143.7532  163.1023 C.ar    1  UNL1        0.0666
     18 C         141.6017  143.5327  162.2564 C.ar    1  UNL1        0.0322
     19 C         144.1925  142.7821  158.2057 C.3     1  UNL1        0.0949
     20 C         142.9735  143.0026  159.0516 C.2     1  UNL1        0.2266
     21 O         141.7464  142.1686  158.8307 O.2     1  UNL1       -0.2748
     22 N         142.9816  144.0570  160.1184 N.am    1  UNL1       -0.2839
     23 H         143.7870  144.6043  160.2634 H       1  UNL1        0.1549
     24 N         141.3512  141.2158  169.0223 N.pl3   1  UNL1       -0.3196
     25 H         141.7438  140.4822  169.5485 H       1  UNL1        0.1481
     26 C         140.6925  142.3693  169.7190 C.3     1  UNL1        0.0705
     27 C         140.5394  143.8473  169.9240 C.3     1  UNL1        0.0212
     28 C         139.7044  142.8893  170.7207 C.3     1  UNL1        0.0212
     29 C         143.5191  138.5539  163.5273 C.1     1  UNL1        0.1052
     30 N         143.8587  138.1525  162.1224 N.1     1  UNL1       -0.1907
@<TRIPOS>BOND
     1    19    20    1
     2    20    21    2
     3    20    22   am
     4    22    10    1
     5    10    11   ar
     6    11    12   ar
     7    12    13   ar
     8    13    14   ar
     9    14    15   ar
    10    15    16   ar
    11    16     1    1
    12     1     2   ar
    13     2     3   ar
    14     3    24    1
    15    24    26    1
    16    26    27    1
    17    27    28    1
    18     3     4   ar
    19     4     5   ar
    20     5     6   ar
    21     6     7   ar
    22     7    29    1
    23    29    30    3
    24     7     8   ar
    25     8     9   ar
    26    16    17   ar
    27    17    18   ar
    28    18    10   ar
    29    17    13   ar
    30     9     1   ar
    31    28    26    1
    32     8     4   ar
    33    22    23    1
    34    24    25    1
@<TRIPOS>MOLECULE
*****
 30 34 0 0 0
SMALL
GASTEIGER

@<TRIPOS>ATOM
      1 C         141.3755  141.2779  166.0382 C.ar    1  UNL1        0.1522
      2 C         141.0007  141.3786  167.4871 C.ar    1  UNL1        0.0715
      3 C         139.9220  140.4985  168.0456 C.ar    1  UNL1        0.1346
      4 N         139.2182  139.5178  167.1552 N.ar    1  UNL1       -0.1980
      5 N         138.1236  138.5272  167.4207 N.ar    1  UNL1       -0.1602
      6 C         137.8219  137.8143  166.1359 C.ar    1  UNL1        0.1339
      7 C         138.7301  138.3643  165.0763 C.ar    1  UNL1        0.1250
      8 C         139.5930  139.4171  165.7063 C.ar    1  UNL1        0.1778
      9 N         140.6717  140.2972  165.1478 N.ar    1  UNL1       -0.2082
     10 C         142.1207  142.9215  161.5150 C.ar    1  UNL1        0.0518
     11 C         143.3409  143.7867  161.4036 C.ar    1  UNL1        0.0148
     12 C         144.1804  144.0591  162.6165 C.ar    1  UNL1        0.0028
     13 C         143.7997  143.4664  163.9407 C.ar    1  UNL1        0.0177
     14 C         144.4286  143.5578  165.2994 C.ar    1  UNL1        0.0205
     15 C         143.5971  142.7492  166.2505 C.ar    1  UNL1        0.0814
     16 N         142.4542  142.1579  165.4797 N.ar    1  UNL1       -0.2902
     17 C         142.5795  142.6012  164.0521 C.ar    1  UNL1        0.0666
     18 C         141.7400  142.3288  162.8392 C.ar    1  UNL1        0.0322
     19 C         139.2359  143.2226  158.8063 C.3     1  UNL1        0.0949
     20 C         140.0753  143.4951  160.0192 C.2     1  UNL1        0.2266
     21 O         139.7089  144.6136  160.9491 O.2     1  UNL1       -0.2748
     22 N         141.2812  142.6491  160.3021 N.am    1  UNL1       -0.2839
     23 H         141.5217  141.9150  159.6918 H       1  UNL1        0.1549
     24 N         139.5472  140.5993  169.4945 N.pl3   1  UNL1       -0.3196
     25 H         138.9970  139.8968  169.9106 H       1  UNL1        0.1481
     26 C         140.0106  141.7701  170.3095 C.3     1  UNL1        0.0705
     27 C         139.9134  143.2235  170.6676 C.3     1  UNL1        0.0212
     28 C         140.9104  142.3448  171.3631 C.3     1  UNL1        0.0212
     29 C         138.7686  137.9365  163.6391 C.1     1  UNL1        0.1052
     30 N         138.8071  137.5088  162.2019 N.1     1  UNL1       -0.1907
@<TRIPOS>BOND
     1    19    20    1
     2    20    21    2
     3    20    22   am
     4    22    10    1
     5    10    11   ar
     6    11    12   ar
     7    12    13   ar
     8    13    14   ar
     9    14    15   ar
    10    15    16   ar
    11    16     1    1
    12     1     2   ar
    13     2     3   ar
    14     3    24    1
    15    24    26    1
    16    26    27    1
    17    27    28    1
    18     3     4   ar
    19     4     5   ar
    20     5     6   ar
    21     6     7   ar
    22     7    29    1
    23    29    30    3
    24     7     8   ar
    25     8     9   ar
    26    16    17   ar
    27    17    18   ar
    28    18    10   ar
    29    17    13   ar
    30     9     1   ar
    31    28    26    1
    32     8     4   ar
    33    22    23    1
    34    24    25    1
@<TRIPOS>MOLECULE
*****
 30 34 0 0 0
SMALL
GASTEIGER

@<TRIPOS>ATOM
      1 C         140.6434  141.0517  161.5522 C.ar    1  UNL1        0.1522
      2 C         141.9568  141.5955  162.0310 C.ar    1  UNL1        0.0715
      3 C         142.6293  142.7040  161.2768 C.ar    1  UNL1        0.1346
      4 N         141.9884  143.2688  160.0438 N.ar    1  UNL1       -0.1980
      5 N         142.4116  144.3557  159.1006 N.ar    1  UNL1       -0.1602
      6 C         141.3598  144.4836  158.0389 C.ar    1  UNL1        0.1339
      7 C         140.2865  143.4758  158.3259 C.ar    1  UNL1        0.1250
      8 C         140.6750  142.7250  159.5650 C.ar    1  UNL1        0.1778
      9 N         140.0025  141.6165  160.3192 N.ar    1  UNL1       -0.2082
     10 C         139.6585  140.5682  166.2969 C.ar    1  UNL1        0.0518
     11 C         138.9632  139.2786  166.6187 C.ar    1  UNL1        0.0148
     12 C         138.6469  138.3035  165.5237 C.ar    1  UNL1        0.0028
     13 C         139.0261  138.6179  164.1068 C.ar    1  UNL1        0.0177
     14 C         138.8457  137.8566  162.8270 C.ar    1  UNL1        0.0205
     15 C         139.4296  138.6757  161.7143 C.ar    1  UNL1        0.0814
     16 N         139.9708  139.9431  162.3063 N.ar    1  UNL1       -0.2902
     17 C         139.7214  139.9074  163.7851 C.ar    1  UNL1        0.0666
     18 C         140.0376  140.8825  164.8801 C.ar    1  UNL1        0.0322
     19 C         141.6441  142.5064  169.1343 C.3     1  UNL1        0.0949
     20 C         141.3278  141.5313  168.0393 C.2     1  UNL1        0.2266
     21 O         142.3647  140.5441  167.5915 O.2     1  UNL1       -0.2748
     22 N         139.9748  141.5433  167.3920 N.am    1  UNL1       -0.2839
     23 H         139.2942  142.1912  167.6858 H       1  UNL1        0.1549
     24 N         143.9427  143.2478  161.7557 N.pl3   1  UNL1       -0.3196
     25 H         144.3785  143.9831  161.2672 H       1  UNL1        0.1481
     26 C         144.5920  142.6714  162.9788 C.3     1  UNL1        0.0705
     27 C         144.7057  142.5878  164.4721 C.3     1  UNL1        0.0212
     28 C         145.6030  141.7566  163.6040 C.3     1  UNL1        0.0212
     29 C         139.0430  143.2571  157.5159 C.1     1  UNL1        0.1052
     30 N         137.7996  143.0385  156.7060 N.1     1  UNL1       -0.1907
@<TRIPOS>BOND
     1    19    20    1
     2    20    21    2
     3    20    22   am
     4    22    10    1
     5    10    11   ar
     6    11    12   ar
     7    12    13   ar
     8    13    14   ar
     9    14    15   ar
    10    15    16   ar
    11    16     1    1
    12     1     2   ar
    13     2     3   ar
    14     3    24    1
    15    24    26    1
    16    26    27    1
    17    27    28    1
    18     3     4   ar
    19     4     5   ar
    20     5     6   ar
    21     6     7   ar
    22     7    29    1
    23    29    30    3
    24     7     8   ar
    25     8     9   ar
    26    16    17   ar
    27    17    18   ar
    28    18    10   ar
    29    17    13   ar
    30     9     1   ar
    31    28    26    1
    32     8     4   ar
    33    22    23    1
    34    24    25    1
@<TRIPOS>MOLECULE
*****
 30 34 0 0 0
SMALL
GASTEIGER

@<TRIPOS>ATOM
      1 C         139.9140  142.8311  161.7643 C.ar    1  UNL1        0.1522
      2 C         141.2185  143.3648  162.2776 C.ar    1  UNL1        0.0715
      3 C         142.1560  144.0757  161.3472 C.ar    1  UNL1        0.1346
      4 N         141.7892  144.2528  159.9036 N.ar    1  UNL1       -0.1980
      5 N         142.5056  144.9054  158.7587 N.ar    1  UNL1       -0.1602
      6 C         141.6439  144.7749  157.5378 C.ar    1  UNL1        0.1339
      7 C         140.3949  144.0417  157.9282 C.ar    1  UNL1        0.1250
      8 C         140.4847  143.7191  159.3903 C.ar    1  UNL1        0.1778
      9 N         139.5471  143.0082  160.3207 N.ar    1  UNL1       -0.2082
     10 C         140.6693  139.1160  164.8211 C.ar    1  UNL1        0.0518
     11 C         139.4322  138.7174  165.5698 C.ar    1  UNL1        0.0148
     12 C         138.1438  139.4480  165.3325 C.ar    1  UNL1        0.0028
     13 C         138.0925  140.5772  164.3465 C.ar    1  UNL1        0.0177
     14 C         136.9747  141.4752  163.9061 C.ar    1  UNL1        0.0205
     15 C         137.5209  142.4288  162.8852 C.ar    1  UNL1        0.0814
     16 N         138.9764  142.1202  162.6946 N.ar    1  UNL1       -0.2902
     17 C         139.3297  140.9758  163.5978 C.ar    1  UNL1        0.0666
     18 C         140.6180  140.2452  163.8351 C.ar    1  UNL1        0.0322
     19 C         144.1077  138.0156  166.4693 C.3     1  UNL1        0.0949
     20 C         142.8193  138.7462  166.2320 C.2     1  UNL1        0.2266
     21 O         142.3925  139.8377  167.1684 O.2     1  UNL1       -0.2748
     22 N         141.9577  138.3854  165.0584 N.am    1  UNL1       -0.2839
     23 H         142.2378  137.6691  164.4439 H       1  UNL1        0.1549
     24 N         143.4605  144.6094  161.8605 N.pl3   1  UNL1       -0.3196
     25 H         143.9765  145.2508  161.3205 H       1  UNL1        0.1481
     26 C         143.9787  144.1660  163.1964 C.3     1  UNL1        0.0705
     27 C         144.7447  143.1834  164.0316 C.3     1  UNL1        0.0212
     28 C         144.1104  144.3807  164.6751 C.3     1  UNL1        0.0212
     29 C         139.2561  143.6925  157.0165 C.1     1  UNL1        0.1052
     30 N         138.1173  143.3433  156.1048 N.1     1  UNL1       -0.1907
@<TRIPOS>BOND
     1    19    20    1
     2    20    21    2
     3    20    22   am
     4    22    10    1
     5    10    11   ar
     6    11    12   ar
     7    12    13   ar
     8    13    14   ar
     9    14    15   ar
    10    15    16   ar
    11    16     1    1
    12     1     2   ar
    13     2     3   ar
    14     3    24    1
    15    24    26    1
    16    26    27    1
    17    27    28    1
    18     3     4   ar
    19     4     5   ar
    20     5     6   ar
    21     6     7   ar
    22     7    29    1
    23    29    30    3
    24     7     8   ar
    25     8     9   ar
    26    16    17   ar
    27    17    18   ar
    28    18    10   ar
    29    17    13   ar
    30     9     1   ar
    31    28    26    1
    32     8     4   ar
    33    22    23    1
    34    24    25    1
