@<TRIPOS>MOLECULE
*****
 30 30 0 0 0
SMALL
GASTEIGER

@<TRIPOS>ATOM
      1 C         140.7954  140.5410  165.9045 C.ar    1  UNL1        0.0449
      2 C         142.2018  140.5909  165.3852 C.ar    1  UNL1       -0.0076
      3 C         142.6027  139.7327  164.2222 C.ar    1  UNL1        0.0168
      4 C         141.5973  138.8246  163.5783 C.ar    1  UNL1        0.1214
      5 C         140.1910  138.7747  164.0976 C.ar    1  UNL1        0.0168
      6 C         139.7900  139.6329  165.2607 C.ar    1  UNL1       -0.0076
      7 N         140.5000  141.9403  169.6065 N.am    1  UNL1       -0.1579
      8 C         140.9010  141.0821  168.4434 C.2     1  UNL1        0.3686
      9 O         141.8085  139.9069  168.6562 O.2     1  UNL1       -0.2332
     10 N         140.3945  141.3992  167.0676 N.am    1  UNL1       -0.2556
     11 H         139.9044  142.7117  169.4668 H       1  UNL1        0.2558
     12 H         139.7988  142.1705  166.9279 H       1  UNL1        0.1578
     13 C         141.0066  141.6232  170.9823 C.2     1  UNL1        0.3790
     14 N         140.4274  140.4705  171.7476 N.pl3   1  UNL1       -0.1311
     15 H         140.7599  140.2624  172.6506 H       1  UNL1        0.3060
     16 N         142.0924  142.4589  171.5928 N.pl3   1  UNL1       -0.2637
     17 H         142.1768  142.5175  172.5719 H       1  UNL1        0.2586
     18 C         144.0223  142.4522  169.8535 C.3     1  UNL1        0.0464
     19 C         143.0495  143.2054  170.7115 C.3     1  UNL1        0.1739
     20 S         141.9983  137.9665  162.4153 S.O2    1  UNL1        0.0602
     21 O         140.6437  137.3224  162.4235 O.2     1  UNL1       -0.1530
     22 O         143.3530  138.6106  162.4070 O.2     1  UNL1       -0.1530
     23 N         142.3993  137.1083  161.2522 N.3     1  UNL1       -0.1794
     24 H         141.6285  136.4618  161.0837 H       1  UNL1        0.1488
     25 C         142.7306  137.7403  159.9328 C.3     1  UNL1        0.0915
     26 C         141.7807  138.7208  159.3113 C.3     1  UNL1        0.0203
     27 C         143.2072  141.4990  166.0291 C.3     1  UNL1        0.0277
     28 C         143.4725  142.8561  165.4479 C.3     1  UNL1        0.0051
     29 C         138.3836  139.5830  165.7799 C.3     1  UNL1        0.0277
     30 C         138.0166  138.6073  166.8585 C.3     1  UNL1        0.0051
@<TRIPOS>BOND
     1    18    19    1
     2    19    16    1
     3    16    13    1
     4    13    14    2
     5    13     7    1
     6     7     8   am
     7     8     9    2
     8     8    10   am
     9    10     1    1
    10     1     2   ar
    11     2    27    1
    12    27    28    1
    13     2     3   ar
    14     3     4   ar
    15     4    20    1
    16    20    21    2
    17    20    22    2
    18    20    23    1
    19    23    25    1
    20    25    26    1
    21     4     5   ar
    22     5     6   ar
    23     6    29    1
    24    29    30    1
    25     6     1   ar
    26    16    17    1
    27    14    15    1
    28     7    11    1
    29    10    12    1
    30    23    24    1
@<TRIPOS>MOLECULE
*****
 30 30 0 0 0
SMALL
GASTEIGER

@<TRIPOS>ATOM
      1 C         140.1553  141.1216  167.8219 C.ar    1  UNL1        0.0449
      2 C         139.7819  140.7149  166.4272 C.ar    1  UNL1       -0.0076
      3 C         139.5856  141.7593  165.3685 C.ar    1  UNL1        0.0168
      4 C         139.7627  143.2103  165.7045 C.ar    1  UNL1        0.1214
      5 C         140.1361  143.6171  167.0992 C.ar    1  UNL1        0.0168
      6 C         140.3324  142.5727  168.1578 C.ar    1  UNL1       -0.0076
      7 N         141.9335  138.6524  170.3696 N.am    1  UNL1       -0.1579
      8 C         141.7372  139.6968  169.3110 C.2     1  UNL1        0.3686
      9 O         142.9266  140.3608  168.6828 O.2     1  UNL1       -0.2332
     10 N         140.3516  140.0772  168.8805 N.am    1  UNL1       -0.2556
     11 H         141.1529  138.2166  170.7819 H       1  UNL1        0.2558
     12 H         139.5710  139.6415  169.2928 H       1  UNL1        0.1578
     13 C         143.3192  138.2720  170.8001 C.2     1  UNL1        0.3790
     14 N         144.1900  139.2751  171.4968 N.pl3   1  UNL1       -0.1311
     15 H         145.0995  139.0254  171.7793 H       1  UNL1        0.3060
     16 N         143.8340  136.8885  170.5337 N.pl3   1  UNL1       -0.2637
     17 H         143.4207  136.3363  169.8313 H       1  UNL1        0.2586
     18 C         144.7423  135.2502  172.3340 C.3     1  UNL1        0.0464
     19 C         144.9784  136.3464  171.3377 C.3     1  UNL1        0.1739
     20 S         139.5664  144.2547  164.6459 S.O2    1  UNL1        0.0602
     21 O         141.0124  144.1393  164.2639 O.2     1  UNL1       -0.1530
     22 O         138.1205  144.3702  165.0279 O.2     1  UNL1       -0.1530
     23 N         139.3701  145.2991  163.5872 N.3     1  UNL1       -0.1794
     24 H         140.1078  145.9916  163.7164 H       1  UNL1        0.1488
     25 C         139.3892  144.9112  162.1384 C.3     1  UNL1        0.0915
     26 C         140.3031  145.6210  161.1839 C.3     1  UNL1        0.0203
     27 C         139.6048  139.2637  166.0911 C.3     1  UNL1        0.0277
     28 C         138.2609  138.6162  166.2480 C.3     1  UNL1        0.0051
     29 C         140.7059  142.9795  169.5526 C.3     1  UNL1        0.0277
     30 C         140.3129  144.3314  170.0701 C.3     1  UNL1        0.0051
@<TRIPOS>BOND
     1    18    19    1
     2    19    16    1
     3    16    13    1
     4    13    14    2
     5    13     7    1
     6     7     8   am
     7     8     9    2
     8     8    10   am
     9    10     1    1
    10     1     2   ar
    11     2    27    1
    12    27    28    1
    13     2     3   ar
    14     3     4   ar
    15     4    20    1
    16    20    21    2
    17    20    22    2
    18    20    23    1
    19    23    25    1
    20    25    26    1
    21     4     5   ar
    22     5     6   ar
    23     6    29    1
    24    29    30    1
    25     6     1   ar
    26    16    17    1
    27    14    15    1
    28     7    11    1
    29    10    12    1
    30    23    24    1
@<TRIPOS>MOLECULE
*****
 30 30 0 0 0
SMALL
GASTEIGER

@<TRIPOS>ATOM
      1 C         143.0686  138.4359  164.3347 C.ar    1  UNL1        0.0449
      2 C         144.0681  139.2222  163.5392 C.ar    1  UNL1       -0.0076
      3 C         143.8993  139.3667  162.0557 C.ar    1  UNL1        0.0168
      4 C         142.7311  138.7250  161.3678 C.ar    1  UNL1        0.1214
      5 C         141.7316  137.9387  162.1632 C.ar    1  UNL1        0.0168
      6 C         141.9004  137.7942  163.6467 C.ar    1  UNL1       -0.0076
      7 N         142.9858  139.2590  168.2161 N.am    1  UNL1       -0.1579
      8 C         142.8170  139.4035  166.7327 C.2     1  UNL1        0.3686
      9 O         142.2278  140.6602  166.1638 O.2     1  UNL1       -0.2332
     10 N         143.2374  138.2914  165.8181 N.am    1  UNL1       -0.2556
     11 H         143.3725  138.4342  168.5895 H       1  UNL1        0.2558
     12 H         143.6241  137.4666  166.1915 H       1  UNL1        0.1578
     13 C         142.5654  140.3712  169.1307 C.2     1  UNL1        0.3790
     14 N         143.4137  140.7298  170.3146 N.pl3   1  UNL1       -0.1311
     15 H         143.1378  141.4597  170.9148 H       1  UNL1        0.3060
     16 N         141.2967  141.1247  168.8612 N.pl3   1  UNL1       -0.2637
     17 H         141.3352  142.0531  168.5361 H       1  UNL1        0.2586
     18 C         139.2460  139.8223  167.9403 C.3     1  UNL1        0.0464
     19 C         139.9694  140.4636  169.0872 C.3     1  UNL1        0.1739
     20 S         142.5623  138.8695  159.8843 S.O2    1  UNL1        0.0602
     21 O         144.0334  139.1257  159.7419 O.2     1  UNL1       -0.1530
     22 O         141.0912  138.6134  160.0267 O.2     1  UNL1       -0.1530
     23 N         142.3935  139.0141  158.4009 N.3     1  UNL1       -0.1794
     24 H         143.3160  139.2217  158.0184 H       1  UNL1        0.1488
     25 C         141.8363  137.8781  157.5952 C.3     1  UNL1        0.0915
     26 C         142.7613  136.8684  156.9829 C.3     1  UNL1        0.0203
     27 C         145.2364  139.8640  164.2271 C.3     1  UNL1        0.0277
     28 C         145.6455  141.2608  163.8646 C.3     1  UNL1        0.0051
     29 C         140.9008  137.0079  164.4422 C.3     1  UNL1        0.0277
     30 C         139.6052  137.6414  164.8546 C.3     1  UNL1        0.0051
@<TRIPOS>BOND
     1    18    19    1
     2    19    16    1
     3    16    13    1
     4    13    14    2
     5    13     7    1
     6     7     8   am
     7     8     9    2
     8     8    10   am
     9    10     1    1
    10     1     2   ar
    11     2    27    1
    12    27    28    1
    13     2     3   ar
    14     3     4   ar
    15     4    20    1
    16    20    21    2
    17    20    22    2
    18    20    23    1
    19    23    25    1
    20    25    26    1
    21     4     5   ar
    22     5     6   ar
    23     6    29    1
    24    29    30    1
    25     6     1   ar
    26    16    17    1
    27    14    15    1
    28     7    11    1
    29    10    12    1
    30    23    24    1
@<TRIPOS>MOLECULE
*****
 30 30 0 0 0
SMALL
GASTEIGER

@<TRIPOS>ATOM
      1 C         142.2975  141.3324  165.3321 C.ar    1  UNL1        0.0449
      2 C         141.0272  142.0890  165.0792 C.ar    1  UNL1       -0.0076
      3 C         140.9447  143.0547  163.9344 C.ar    1  UNL1        0.0168
      4 C         142.1324  143.2638  163.0424 C.ar    1  UNL1        0.1214
      5 C         143.4026  142.5072  163.2953 C.ar    1  UNL1        0.0168
      6 C         143.4852  141.5415  164.4401 C.ar    1  UNL1       -0.0076
      7 N         142.7428  139.9025  169.0073 N.am    1  UNL1       -0.1579
      8 C         142.6602  140.8682  167.8624 C.2     1  UNL1        0.3686
      9 O         142.8579  142.3356  168.1033 O.2     1  UNL1       -0.2332
     10 N         142.3800  140.3667  166.4769 N.am    1  UNL1       -0.2556
     11 H         142.6130  138.9395  168.8492 H       1  UNL1        0.2558
     12 H         142.2502  139.4037  166.3188 H       1  UNL1        0.1578
     13 C         143.0230  140.4042  170.3929 C.2     1  UNL1        0.3790
     14 N         143.9002  139.6102  171.3148 N.pl3   1  UNL1       -0.1311
     15 H         144.0841  139.9394  172.2243 H       1  UNL1        0.3060
     16 N         142.4260  141.6998  170.8565 N.pl3   1  UNL1       -0.2637
     17 H         142.9997  142.4906  170.9779 H       1  UNL1        0.2586
     18 C         140.0914  142.7034  170.3159 C.3     1  UNL1        0.0464
     19 C         140.9549  141.7906  171.1351 C.3     1  UNL1        0.1739
     20 S         142.0499  144.2295  161.8976 S.O2    1  UNL1        0.0602
     21 O         140.5797  143.9584  161.7749 O.2     1  UNL1       -0.1530
     22 O         143.5201  144.5006  162.0203 O.2     1  UNL1       -0.1530
     23 N         141.9674  145.1952  160.7528 N.3     1  UNL1       -0.1794
     24 H         142.8624  145.1516  160.2657 H       1  UNL1        0.1488
     25 C         140.8995  145.0347  159.7117 C.3     1  UNL1        0.0915
     26 C         141.0780  145.6464  158.3538 C.3     1  UNL1        0.0203
     27 C         139.8394  141.8800  165.9711 C.3     1  UNL1        0.0277
     28 C         138.7526  140.9304  165.5625 C.3     1  UNL1        0.0051
     29 C         144.7555  140.7848  164.6930 C.3     1  UNL1        0.0277
     30 C         144.9426  139.4165  164.1076 C.3     1  UNL1        0.0051
@<TRIPOS>BOND
     1    18    19    1
     2    19    16    1
     3    16    13    1
     4    13    14    2
     5    13     7    1
     6     7     8   am
     7     8     9    2
     8     8    10   am
     9    10     1    1
    10     1     2   ar
    11     2    27    1
    12    27    28    1
    13     2     3   ar
    14     3     4   ar
    15     4    20    1
    16    20    21    2
    17    20    22    2
    18    20    23    1
    19    23    25    1
    20    25    26    1
    21     4     5   ar
    22     5     6   ar
    23     6    29    1
    24    29    30    1
    25     6     1   ar
    26    16    17    1
    27    14    15    1
    28     7    11    1
    29    10    12    1
    30    23    24    1
@<TRIPOS>MOLECULE
*****
 30 30 0 0 0
SMALL
GASTEIGER

@<TRIPOS>ATOM
      1 C         141.5597  141.5305  165.6492 C.ar    1  UNL1        0.0449
      2 C         142.4856  142.5068  164.9863 C.ar    1  UNL1       -0.0076
      3 C         141.9375  143.5445  164.0521 C.ar    1  UNL1        0.0168
      4 C         140.4636  143.6058  163.7807 C.ar    1  UNL1        0.1214
      5 C         139.5377  142.6295  164.4436 C.ar    1  UNL1        0.0168
      6 C         140.0858  141.5918  165.3779 C.ar    1  UNL1       -0.0076
      7 N         142.6596  139.7046  168.9968 N.am    1  UNL1       -0.1579
      8 C         142.1116  140.7423  168.0625 C.2     1  UNL1        0.3686
      9 O         141.5672  142.0295  168.6074 O.2     1  UNL1       -0.2332
     10 N         142.1078  140.4928  166.5835 N.am    1  UNL1       -0.2556
     11 H         143.0169  138.8597  168.6392 H       1  UNL1        0.2558
     12 H         142.4651  139.6480  166.2259 H       1  UNL1        0.1578
     13 C         142.6634  139.9541  170.4759 C.2     1  UNL1        0.3790
     14 N         143.8983  139.6753  171.2804 N.pl3   1  UNL1       -0.1311
     15 H         143.9007  139.8391  172.2512 H       1  UNL1        0.3060
     16 N         141.4322  140.4824  171.1505 N.pl3   1  UNL1       -0.2637
     17 H         141.4908  141.2754  171.7310 H       1  UNL1        0.2586
     18 C         139.0892  140.4151  170.0300 C.3     1  UNL1        0.0464
     19 C         140.1117  139.8026  170.9406 C.3     1  UNL1        0.1739
     20 S         139.9155  144.6435  162.8465 S.O2    1  UNL1        0.0602
     21 O         141.1385  145.4845  163.0631 O.2     1  UNL1       -0.1530
     22 O         138.6925  143.8025  162.6298 O.2     1  UNL1       -0.1530
     23 N         139.3674  145.6812  161.9122 N.3     1  UNL1       -0.1794
     24 H         139.3833  146.5683  162.4155 H       1  UNL1        0.1488
     25 C         140.0292  145.9227  160.5880 C.3     1  UNL1        0.0915
     26 C         140.4007  144.7627  159.7126 C.3     1  UNL1        0.0203
     27 C         143.9596  142.4455  165.2577 C.3     1  UNL1        0.0277
     28 C         144.7234  143.7053  165.5393 C.3     1  UNL1        0.0051
     29 C         139.1598  140.6155  166.0408 C.3     1  UNL1        0.0277
     30 C         138.6322  139.4411  165.2711 C.3     1  UNL1        0.0051
@<TRIPOS>BOND
     1    18    19    1
     2    19    16    1
     3    16    13    1
     4    13    14    2
     5    13     7    1
     6     7     8   am
     7     8     9    2
     8     8    10   am
     9    10     1    1
    10     1     2   ar
    11     2    27    1
    12    27    28    1
    13     2     3   ar
    14     3     4   ar
    15     4    20    1
    16    20    21    2
    17    20    22    2
    18    20    23    1
    19    23    25    1
    20    25    26    1
    21     4     5   ar
    22     5     6   ar
    23     6    29    1
    24    29    30    1
    25     6     1   ar
    26    16    17    1
    27    14    15    1
    28     7    11    1
    29    10    12    1
    30    23    24    1
@<TRIPOS>MOLECULE
*****
 30 30 0 0 0
SMALL
GASTEIGER

@<TRIPOS>ATOM
      1 C         138.5979  140.8848  165.4066 C.ar    1  UNL1        0.0449
      2 C         139.2941  142.1965  165.6178 C.ar    1  UNL1       -0.0076
      3 C         140.1669  142.3972  166.8211 C.ar    1  UNL1        0.0168
      4 C         140.3435  141.2861  167.8132 C.ar    1  UNL1        0.1214
      5 C         139.6472  139.9744  167.6020 C.ar    1  UNL1        0.0168
      6 C         138.7745  139.7737  166.3987 C.ar    1  UNL1       -0.0076
      7 N         137.4499  139.9980  161.7126 N.am    1  UNL1       -0.1579
      8 C         138.3227  140.1987  162.9159 C.2     1  UNL1        0.3686
      9 O         139.7930  139.9138  162.8319 O.2     1  UNL1       -0.2332
     10 N         137.7252  140.6841  164.2032 N.am    1  UNL1       -0.2556
     11 H         136.4849  140.1850  161.7677 H       1  UNL1        0.2558
     12 H         136.7601  140.8711  164.2584 H       1  UNL1        0.1578
     13 C         138.0475  139.5125  160.4252 C.2     1  UNL1        0.3790
     14 N         139.0925  138.4366  160.4421 N.pl3   1  UNL1       -0.1311
     15 H         139.4847  138.1179  159.5972 H       1  UNL1        0.3060
     16 N         137.6000  140.1030  159.1209 N.pl3   1  UNL1       -0.2637
     17 H         136.8574  139.6909  158.6230 H       1  UNL1        0.2586
     18 C         139.1296  142.1730  159.4751 C.3     1  UNL1        0.0464
     19 C         138.2841  141.3213  158.5753 C.3     1  UNL1        0.1739
     20 S         141.2162  141.4867  169.0166 S.O2    1  UNL1        0.0602
     21 O         142.1475  140.4214  168.5188 O.2     1  UNL1       -0.1530
     22 O         140.2849  142.5521  169.5144 O.2     1  UNL1       -0.1530
     23 N         142.0890  141.6874  170.2199 N.3     1  UNL1       -0.1794
     24 H         142.6785  140.8586  170.2975 H       1  UNL1        0.1488
     25 C         143.0008  142.8760  170.2953 C.3     1  UNL1        0.0915
     26 C         144.4562  142.7270  169.9643 C.3     1  UNL1        0.0203
     27 C         139.1176  143.3077  164.6257 C.3     1  UNL1        0.0277
     28 C         138.8484  144.7038  165.1033 C.3     1  UNL1        0.0051
     29 C         138.0783  138.4619  166.1875 C.3     1  UNL1        0.0277
     30 C         137.2318  137.8778  167.2794 C.3     1  UNL1        0.0051
@<TRIPOS>BOND
     1    18    19    1
     2    19    16    1
     3    16    13    1
     4    13    14    2
     5    13     7    1
     6     7     8   am
     7     8     9    2
     8     8    10   am
     9    10     1    1
    10     1     2   ar
    11     2    27    1
    12    27    28    1
    13     2     3   ar
    14     3     4   ar
    15     4    20    1
    16    20    21    2
    17    20    22    2
    18    20    23    1
    19    23    25    1
    20    25    26    1
    21     4     5   ar
    22     5     6   ar
    23     6    29    1
    24    29    30    1
    25     6     1   ar
    26    16    17    1
    27    14    15    1
    28     7    11    1
    29    10    12    1
    30    23    24    1
@<TRIPOS>MOLECULE
*****
 30 30 0 0 0
SMALL
GASTEIGER

@<TRIPOS>ATOM
      1 C         143.0719  138.4367  164.3474 C.ar    1  UNL1        0.0449
      2 C         141.8987  137.7995  163.6637 C.ar    1  UNL1       -0.0076
      3 C         141.7229  137.9480  162.1815 C.ar    1  UNL1        0.0168
      4 C         142.7203  138.7338  161.3829 C.ar    1  UNL1        0.1214
      5 C         143.8935  139.3710  162.0666 C.ar    1  UNL1        0.0168
      6 C         144.0693  139.2225  163.5488 C.ar    1  UNL1       -0.0076
      7 N         142.9997  139.2458  168.2320 N.am    1  UNL1       -0.1579
      8 C         142.8239  139.3944  166.7498 C.2     1  UNL1        0.3686
      9 O         142.2242  140.6492  166.1877 O.2     1  UNL1       -0.2332
     10 N         143.2477  138.2882  165.8296 N.am    1  UNL1       -0.2556
     11 H         143.3933  138.4223  168.6009 H       1  UNL1        0.2558
     12 H         143.6413  137.4646  166.1986 H       1  UNL1        0.1578
     13 C         142.5758  140.3521  169.1521 C.2     1  UNL1        0.3790
     14 N         143.3957  140.6733  170.3664 N.pl3   1  UNL1       -0.1311
     15 H         143.1175  141.3993  170.9703 H       1  UNL1        0.3060
     16 N         141.3320  141.1371  168.8579 N.pl3   1  UNL1       -0.2637
     17 H         141.4003  142.0542  168.5065 H       1  UNL1        0.2586
     18 C         139.2618  139.8363  167.9793 C.3     1  UNL1        0.0464
     19 C         139.9840  140.5249  169.0991 C.3     1  UNL1        0.1739
     20 S         142.5444  138.8823  159.9007 S.O2    1  UNL1        0.0602
     21 O         141.0646  138.6941  160.0574 O.2     1  UNL1       -0.1530
     22 O         144.0243  139.0706  159.7440 O.2     1  UNL1       -0.1530
     23 N         142.3686  139.0309  158.4185 N.3     1  UNL1       -0.1794
     24 H         143.2514  138.7555  157.9882 H       1  UNL1        0.1488
     25 C         141.2864  138.2699  157.7116 C.3     1  UNL1        0.0915
     26 C         141.6418  137.1337  156.7991 C.3     1  UNL1        0.0203
     27 C         140.9012  137.0137  164.4623 C.3     1  UNL1        0.0277
     28 C         139.6154  137.6536  164.8948 C.3     1  UNL1        0.0051
     29 C         145.2426  139.8598  164.2325 C.3     1  UNL1        0.0277
     30 C         145.6413  141.2635  163.8852 C.3     1  UNL1        0.0051
@<TRIPOS>BOND
     1    18    19    1
     2    19    16    1
     3    16    13    1
     4    13    14    2
     5    13     7    1
     6     7     8   am
     7     8     9    2
     8     8    10   am
     9    10     1    1
    10     1     2   ar
    11     2    27    1
    12    27    28    1
    13     2     3   ar
    14     3     4   ar
    15     4    20    1
    16    20    21    2
    17    20    22    2
    18    20    23    1
    19    23    25    1
    20    25    26    1
    21     4     5   ar
    22     5     6   ar
    23     6    29    1
    24    29    30    1
    25     6     1   ar
    26    16    17    1
    27    14    15    1
    28     7    11    1
    29    10    12    1
    30    23    24    1
@<TRIPOS>MOLECULE
*****
 30 30 0 0 0
SMALL
GASTEIGER

@<TRIPOS>ATOM
      1 C         138.6243  140.9439  165.3906 C.ar    1  UNL1        0.0449
      2 C         138.7953  139.8164  166.3650 C.ar    1  UNL1       -0.0076
      3 C         139.6725  139.9922  167.5690 C.ar    1  UNL1        0.0168
      4 C         140.3786  141.2955  167.7987 C.ar    1  UNL1        0.1214
      5 C         140.2076  142.4230  166.8243 C.ar    1  UNL1        0.0168
      6 C         139.3304  142.2472  165.6202 C.ar    1  UNL1       -0.0076
      7 N         137.4491  140.0653  161.7032 N.am    1  UNL1       -0.1579
      8 C         138.3263  140.2411  162.9072 C.2     1  UNL1        0.3686
      9 O         139.7827  139.8900  162.8318 O.2     1  UNL1       -0.2332
     10 N         137.7471  140.7681  164.1866 N.am    1  UNL1       -0.2556
     11 H         136.4932  140.2958  161.7527 H       1  UNL1        0.2558
     12 H         136.7912  140.9985  164.2361 H       1  UNL1        0.1578
     13 C         138.0284  139.5384  160.4238 C.2     1  UNL1        0.3790
     14 N         139.0702  138.4599  160.4603 N.pl3   1  UNL1       -0.1311
     15 H         139.4504  138.1141  159.6206 H       1  UNL1        0.3060
     16 N         137.5657  140.0899  159.1078 N.pl3   1  UNL1       -0.2637
     17 H         136.7444  139.7431  158.6901 H       1  UNL1        0.2586
     18 C         137.6817  142.0879  157.4511 C.3     1  UNL1        0.0464
     19 C         138.3543  141.1699  158.4283 C.3     1  UNL1        0.1739
     20 S         141.2558  141.4713  169.0027 S.O2    1  UNL1        0.0602
     21 O         140.6643  142.8300  169.2352 O.2     1  UNL1       -0.1530
     22 O         141.8472  140.1126  168.7702 O.2     1  UNL1       -0.1530
     23 N         142.1329  141.6471  170.2067 N.3     1  UNL1       -0.1794
     24 H         142.7398  140.8285  170.2510 H       1  UNL1        0.1488
     25 C         143.0209  142.8509  170.3184 C.3     1  UNL1        0.0915
     26 C         144.4826  142.7367  170.0015 C.3     1  UNL1        0.0203
     27 C         138.0892  138.5130  166.1354 C.3     1  UNL1        0.0277
     28 C         137.2607  137.9061  167.2287 C.3     1  UNL1        0.0051
     29 C         139.1594  143.3747  164.6458 C.3     1  UNL1        0.0277
     30 C         138.4891  144.6449  165.0787 C.3     1  UNL1        0.0051
@<TRIPOS>BOND
     1    18    19    1
     2    19    16    1
     3    16    13    1
     4    13    14    2
     5    13     7    1
     6     7     8   am
     7     8     9    2
     8     8    10   am
     9    10     1    1
    10     1     2   ar
    11     2    27    1
    12    27    28    1
    13     2     3   ar
    14     3     4   ar
    15     4    20    1
    16    20    21    2
    17    20    22    2
    18    20    23    1
    19    23    25    1
    20    25    26    1
    21     4     5   ar
    22     5     6   ar
    23     6    29    1
    24    29    30    1
    25     6     1   ar
    26    16    17    1
    27    14    15    1
    28     7    11    1
    29    10    12    1
    30    23    24    1
@<TRIPOS>MOLECULE
*****
 30 30 0 0 0
SMALL
GASTEIGER

@<TRIPOS>ATOM
      1 C         141.8107  143.7839  164.6192 C.ar    1  UNL1        0.0449
      2 C         143.0469  143.0677  165.0761 C.ar    1  UNL1       -0.0076
      3 C         142.9644  142.0638  166.1877 C.ar    1  UNL1        0.0168
      4 C         141.6459  141.7762  166.8423 C.ar    1  UNL1        0.1214
      5 C         140.4097  142.4925  166.3854 C.ar    1  UNL1        0.0168
      6 C         140.4921  143.4963  165.2738 C.ar    1  UNL1       -0.0076
      7 N         141.6194  145.3905  160.9954 N.am    1  UNL1       -0.1579
      8 C         141.5370  144.3866  162.1069 C.2     1  UNL1        0.3686
      9 O         141.0983  142.9816  161.8176 O.2     1  UNL1       -0.2332
     10 N         141.8931  144.7878  163.5077 N.am    1  UNL1       -0.2556
     11 H         141.9072  146.3126  161.1852 H       1  UNL1        0.2558
     12 H         142.1810  145.7099  163.6975 H       1  UNL1        0.1578
     13 C         141.2632  144.9893  159.5945 C.2     1  UNL1        0.3790
     14 N         139.8656  144.5501  159.2726 N.pl3   1  UNL1       -0.1311
     15 H         139.6318  144.2868  158.3532 H       1  UNL1        0.3060
     16 N         142.3047  145.0274  158.5157 N.pl3   1  UNL1       -0.2637
     17 H         142.5233  145.8788  158.0724 H       1  UNL1        0.2586
     18 C         143.5821  142.8590  159.1610 C.3     1  UNL1        0.0464
     19 C         143.0131  143.7683  158.1124 C.3     1  UNL1        0.1739
     20 S         141.5634  140.7724  167.9538 S.O2    1  UNL1        0.0602
     21 O         142.2847  141.7214  168.8644 O.2     1  UNL1       -0.1530
     22 O         140.8422  139.8234  167.0433 O.2     1  UNL1       -0.1530
     23 N         141.4810  139.7686  169.0654 N.3     1  UNL1       -0.1794
     24 H         142.4066  139.7248  169.4918 H       1  UNL1        0.1488
     25 C         140.4987  139.9647  170.1818 C.3     1  UNL1        0.0915
     26 C         139.1711  140.6073  169.9084 C.3     1  UNL1        0.0203
     27 C         144.3655  143.3552  164.4215 C.3     1  UNL1        0.0277
     28 C         144.9191  142.4056  163.4009 C.3     1  UNL1        0.0051
     29 C         139.2558  144.2126  164.8169 C.3     1  UNL1        0.0277
     30 C         138.4728  145.0492  165.7849 C.3     1  UNL1        0.0051
@<TRIPOS>BOND
     1    18    19    1
     2    19    16    1
     3    16    13    1
     4    13    14    2
     5    13     7    1
     6     7     8   am
     7     8     9    2
     8     8    10   am
     9    10     1    1
    10     1     2   ar
    11     2    27    1
    12    27    28    1
    13     2     3   ar
    14     3     4   ar
    15     4    20    1
    16    20    21    2
    17    20    22    2
    18    20    23    1
    19    23    25    1
    20    25    26    1
    21     4     5   ar
    22     5     6   ar
    23     6    29    1
    24    29    30    1
    25     6     1   ar
    26    16    17    1
    27    14    15    1
    28     7    11    1
    29    10    12    1
    30    23    24    1
