@<TRIPOS>MOLECULE
*****
 22 24 0 0 0
SMALL
GASTEIGER

@<TRIPOS>ATOM
      1 C         138.4231  140.3588  165.2210 C.2     1  UNL1       -0.0420
      2 C         139.5097  141.2480  165.7490 C.2     1  UNL1       -0.0239
      3 C         139.5197  142.5044  164.9296 C.ar    1  UNL1       -0.0077
      4 C         140.3730  143.7365  164.9917 C.ar    1  UNL1        0.0017
      5 C         140.1459  144.8558  164.0194 C.ar    1  UNL1        0.0296
      6 C         139.0655  144.7431  162.9849 C.ar    1  UNL1        0.1398
      7 F         138.8384  145.8625  162.0126 F       1  UNL1       -0.2042
      8 C         138.2122  143.5110  162.9228 C.ar    1  UNL1        0.0257
      9 C         138.4393  142.3917  163.8951 C.ar    1  UNL1       -0.0162
     10 C         137.7616  141.0657  164.0752 C.3     1  UNL1        0.0481
     11 C         138.0616  139.0012  165.7465 C.3     1  UNL1        0.0394
     12 C         138.8298  137.7939  165.2967 C.3     1  UNL1        0.0765
     13 C         141.1854  138.0519  164.2316 C.3     1  UNL1        0.0897
     14 N         139.7039  137.8715  164.0803 N.3     1  UNL1       -0.2700
     15 C         139.0968  137.7686  162.7126 C.3     1  UNL1        0.0897
     16 C         140.4255  140.9357  166.8952 C.3     1  UNL1        0.0733
     17 C         140.1999  141.5780  168.2319 C.ar    1  UNL1        0.0849
     18 C         140.6788  142.9774  168.4820 C.ar    1  UNL1        0.0185
     19 C         140.4533  143.6197  169.8186 C.ar    1  UNL1        0.0238
     20 C         139.7490  142.8626  170.9052 C.ar    1  UNL1        0.1222
     21 N         139.2701  141.4633  170.6551 N.ar    1  UNL1       -0.1467
     22 N         139.4956  140.8209  169.3185 N.ar    1  UNL1       -0.1520
@<TRIPOS>BOND
     1    13    14    1
     2    14    15    1
     3    14    12    1
     4    12    11    1
     5    11     1    1
     6     1     2    2
     7     2    16    1
     8    16    17    1
     9    17    18   ar
    10    18    19   ar
    11    19    20   ar
    12    20    21   ar
    13    21    22   ar
    14     2     3    1
    15     3     4   ar
    16     4     5   ar
    17     5     6   ar
    18     6     7    1
    19     6     8   ar
    20     8     9   ar
    21     9    10    1
    22    10     1    1
    23    22    17   ar
    24     9     3   ar
@<TRIPOS>MOLECULE
*****
 22 24 0 0 0
SMALL
GASTEIGER

@<TRIPOS>ATOM
      1 C         143.4053  143.1405  164.5579 C.2     1  UNL1       -0.0420
      2 C         142.3385  142.5624  165.4398 C.2     1  UNL1       -0.0239
      3 C         141.0099  143.0435  164.9365 C.ar    1  UNL1       -0.0077
      4 C         139.6082  142.7974  165.4104 C.ar    1  UNL1        0.0017
      5 C         138.4520  143.4269  164.6913 C.ar    1  UNL1        0.0296
      6 C         138.6976  144.3024  163.4984 C.ar    1  UNL1        0.1398
      7 F         137.5414  144.9319  162.7793 F       1  UNL1       -0.2042
      8 C         140.0994  144.5485  163.0245 C.ar    1  UNL1        0.0257
      9 C         141.2555  143.9190  163.7436 C.ar    1  UNL1       -0.0162
     10 C         142.7359  143.9790  163.5096 C.3     1  UNL1        0.0481
     11 C         144.8821  142.9191  164.6995 C.3     1  UNL1        0.0394
     12 C         145.5835  141.9430  163.8023 C.3     1  UNL1        0.0765
     13 C         144.7850  139.5347  164.3614 C.3     1  UNL1        0.0897
     14 N         144.8968  140.6740  163.3921 N.3     1  UNL1       -0.2700
     15 C         144.3220  140.5444  162.0127 C.3     1  UNL1        0.0897
     16 C         142.5613  141.6613  166.6181 C.3     1  UNL1        0.0733
     17 C         142.5532  142.2273  168.0073 C.ar    1  UNL1        0.0849
     18 C         141.2507  142.5430  168.6809 C.ar    1  UNL1        0.0185
     19 C         141.2425  143.1090  170.0700 C.ar    1  UNL1        0.0238
     20 C         142.5369  143.3593  170.7854 C.ar    1  UNL1        0.1222
     21 N         143.8394  143.0435  170.1118 N.ar    1  UNL1       -0.1467
     22 N         143.8476  142.4776  168.7227 N.ar    1  UNL1       -0.1520
@<TRIPOS>BOND
     1    13    14    1
     2    14    15    1
     3    14    12    1
     4    12    11    1
     5    11     1    1
     6     1     2    2
     7     2    16    1
     8    16    17    1
     9    17    18   ar
    10    18    19   ar
    11    19    20   ar
    12    20    21   ar
    13    21    22   ar
    14     2     3    1
    15     3     4   ar
    16     4     5   ar
    17     5     6   ar
    18     6     7    1
    19     6     8   ar
    20     8     9   ar
    21     9    10    1
    22    10     1    1
    23    22    17   ar
    24     9     3   ar
@<TRIPOS>MOLECULE
*****
 22 24 0 0 0
SMALL
GASTEIGER

@<TRIPOS>ATOM
      1 C         143.3590  141.1907  165.5211 C.2     1  UNL1       -0.0420
      2 C         142.9165  139.9383  166.2178 C.2     1  UNL1       -0.0239
      3 C         142.6304  140.2809  167.6499 C.ar    1  UNL1       -0.0077
      4 C         142.1623  139.4487  168.8068 C.ar    1  UNL1        0.0017
      5 C         141.9599  140.0808  170.1519 C.ar    1  UNL1        0.0296
      6 C         142.2257  141.5450  170.3402 C.ar    1  UNL1        0.1398
      7 F         142.0232  142.1771  171.6855 F       1  UNL1       -0.2042
      8 C         142.6938  142.3772  169.1834 C.ar    1  UNL1        0.0257
      9 C         142.8962  141.7451  167.8382 C.ar    1  UNL1       -0.0162
     10 C         143.3464  142.3074  166.5225 C.3     1  UNL1        0.0481
     11 C         143.7462  141.3063  164.0765 C.3     1  UNL1        0.0394
     12 C         144.7367  142.3473  163.6464 C.3     1  UNL1        0.0765
     13 C         144.4283  142.9034  161.1273 C.3     1  UNL1        0.0897
     14 N         144.3769  143.3240  162.5663 N.3     1  UNL1       -0.2700
     15 C         143.9658  144.7212  162.9250 C.3     1  UNL1        0.0897
     16 C         142.7834  138.5814  165.5924 C.3     1  UNL1        0.0733
     17 C         141.5842  138.2575  164.7515 C.ar    1  UNL1        0.0849
     18 C         140.2070  138.5691  165.2577 C.ar    1  UNL1        0.0185
     19 C         139.0077  138.2453  164.4169 C.ar    1  UNL1        0.0238
     20 C         139.1858  137.6098  163.0699 C.ar    1  UNL1        0.1222
     21 N         140.5630  137.2982  162.5637 N.ar    1  UNL1       -0.1467
     22 N         141.7622  137.6220  163.4045 N.ar    1  UNL1       -0.1520
@<TRIPOS>BOND
     1    13    14    1
     2    14    15    1
     3    14    12    1
     4    12    11    1
     5    11     1    1
     6     1     2    2
     7     2    16    1
     8    16    17    1
     9    17    18   ar
    10    18    19   ar
    11    19    20   ar
    12    20    21   ar
    13    21    22   ar
    14     2     3    1
    15     3     4   ar
    16     4     5   ar
    17     5     6   ar
    18     6     7    1
    19     6     8   ar
    20     8     9   ar
    21     9    10    1
    22    10     1    1
    23    22    17   ar
    24     9     3   ar
@<TRIPOS>MOLECULE
*****
 22 24 0 0 0
SMALL
GASTEIGER

@<TRIPOS>ATOM
      1 C         141.6373  140.2360  165.8375 C.2     1  UNL1       -0.0420
      2 C         140.4872  141.0047  166.4172 C.2     1  UNL1       -0.0239
      3 C         140.9865  141.7496  167.6196 C.ar    1  UNL1       -0.0077
      4 C         140.3013  142.6688  168.5868 C.ar    1  UNL1        0.0017
      5 C         141.0749  143.2796  169.7174 C.ar    1  UNL1        0.0296
      6 C         142.5337  142.9712  169.8809 C.ar    1  UNL1        0.1398
      7 F         143.3074  143.5821  171.0116 F       1  UNL1       -0.2042
      8 C         143.2189  142.0520  168.9137 C.ar    1  UNL1        0.0257
      9 C         142.4453  141.4412  167.7831 C.ar    1  UNL1       -0.0162
     10 C         142.8475  140.5057  166.6816 C.3     1  UNL1        0.0481
     11 C         141.5863  139.3526  164.6263 C.3     1  UNL1        0.0394
     12 C         141.0158  137.9692  164.7304 C.3     1  UNL1        0.0765
     13 C         139.0745  137.7799  163.0141 C.3     1  UNL1        0.0897
     14 N         139.5653  137.7316  164.4307 N.3     1  UNL1       -0.2700
     15 C         138.6058  137.4458  165.5476 C.3     1  UNL1        0.0897
     16 C         139.0839  141.0251  165.8874 C.3     1  UNL1        0.0733
     17 C         138.6695  142.0774  164.9020 C.ar    1  UNL1        0.0849
     18 C         139.0689  143.5069  165.1188 C.ar    1  UNL1        0.0185
     19 C         138.6545  144.5591  164.1335 C.ar    1  UNL1        0.0238
     20 C         137.8406  144.1819  162.9313 C.ar    1  UNL1        0.1222
     21 N         137.4411  142.7524  162.7145 N.ar    1  UNL1       -0.1467
     22 N         137.8556  141.7001  163.6998 N.ar    1  UNL1       -0.1520
@<TRIPOS>BOND
     1    13    14    1
     2    14    15    1
     3    14    12    1
     4    12    11    1
     5    11     1    1
     6     1     2    2
     7     2    16    1
     8    16    17    1
     9    17    18   ar
    10    18    19   ar
    11    19    20   ar
    12    20    21   ar
    13    21    22   ar
    14     2     3    1
    15     3     4   ar
    16     4     5   ar
    17     5     6   ar
    18     6     7    1
    19     6     8   ar
    20     8     9   ar
    21     9    10    1
    22    10     1    1
    23    22    17   ar
    24     9     3   ar
@<TRIPOS>MOLECULE
*****
 22 24 0 0 0
SMALL
GASTEIGER

@<TRIPOS>ATOM
      1 C         141.3613  139.3351  165.5325 C.2     1  UNL1       -0.0420
      2 C         140.0625  139.6716  166.2032 C.2     1  UNL1       -0.0239
      3 C         140.3489  139.9691  167.6452 C.ar    1  UNL1       -0.0077
      4 C         139.4565  140.3592  168.7860 C.ar    1  UNL1        0.0017
      5 C         140.0400  140.5968  170.1473 C.ar    1  UNL1        0.0296
      6 C         141.5158  140.4442  170.3678 C.ar    1  UNL1        0.1398
      7 F         142.0992  140.6817  171.7292 F       1  UNL1       -0.2042
      8 C         142.4082  140.0540  169.2270 C.ar    1  UNL1        0.0257
      9 C         141.8247  139.8165  167.8658 C.ar    1  UNL1       -0.0162
     10 C         142.4504  139.4247  166.5600 C.3     1  UNL1        0.0481
     11 C         141.5397  138.9727  164.0879 C.3     1  UNL1        0.0394
     12 C         142.8016  138.3012  163.6334 C.3     1  UNL1        0.0765
     13 C         143.9867  138.9597  161.4170 C.3     1  UNL1        0.0897
     14 N         143.8501  139.0890  162.9052 N.3     1  UNL1       -0.2700
     15 C         144.7618  140.0061  163.6652 C.3     1  UNL1        0.0897
     16 C         138.7140  139.7047  165.5471 C.3     1  UNL1        0.0733
     17 C         138.3532  140.8365  164.6311 C.ar    1  UNL1        0.0849
     18 C         138.7031  142.2460  165.0066 C.ar    1  UNL1        0.0185
     19 C         138.3424  143.3778  164.0907 C.ar    1  UNL1        0.0238
     20 C         137.6317  143.1000  162.7992 C.ar    1  UNL1        0.1222
     21 N         137.2818  141.6906  162.4237 N.ar    1  UNL1       -0.1467
     22 N         137.6426  140.5588  163.3396 N.ar    1  UNL1       -0.1520
@<TRIPOS>BOND
     1    13    14    1
     2    14    15    1
     3    14    12    1
     4    12    11    1
     5    11     1    1
     6     1     2    2
     7     2    16    1
     8    16    17    1
     9    17    18   ar
    10    18    19   ar
    11    19    20   ar
    12    20    21   ar
    13    21    22   ar
    14     2     3    1
    15     3     4   ar
    16     4     5   ar
    17     5     6   ar
    18     6     7    1
    19     6     8   ar
    20     8     9   ar
    21     9    10    1
    22    10     1    1
    23    22    17   ar
    24     9     3   ar
@<TRIPOS>MOLECULE
*****
 22 24 0 0 0
SMALL
GASTEIGER

@<TRIPOS>ATOM
      1 C         138.9863  139.5896  166.2932 C.2     1  UNL1       -0.0420
      2 C         139.9187  140.7523  166.1235 C.2     1  UNL1       -0.0239
      3 C         140.2206  141.3068  167.4842 C.ar    1  UNL1       -0.0077
      4 C         141.0783  142.4524  167.9336 C.ar    1  UNL1        0.0017
      5 C         141.1901  142.7780  169.3935 C.ar    1  UNL1        0.0296
      6 C         140.4442  141.9579  170.4041 C.ar    1  UNL1        0.1398
      7 F         140.5561  142.2836  171.8641 F       1  UNL1       -0.2042
      8 C         139.5866  140.8123  169.9547 C.ar    1  UNL1        0.0257
      9 C         139.4747  140.4867  168.4948 C.ar    1  UNL1       -0.0162
     10 C         138.7119  139.4255  167.7587 C.3     1  UNL1        0.0481
     11 C         138.4266  138.7402  165.1908 C.3     1  UNL1        0.0394
     12 C         139.1655  137.5157  164.7386 C.3     1  UNL1        0.0765
     13 C         140.4087  137.7448  162.4688 C.3     1  UNL1        0.0897
     14 N         140.4436  137.6537  163.9656 N.3     1  UNL1       -0.2700
     15 C         141.7565  137.7005  164.6895 C.3     1  UNL1        0.0897
     16 C         140.4551  141.2697  164.8218 C.3     1  UNL1        0.0733
     17 C         139.8104  142.4527  164.1621 C.ar    1  UNL1        0.0849
     18 C         138.4331  142.8821  164.5727 C.ar    1  UNL1        0.0185
     19 C         137.7884  144.0650  163.9131 C.ar    1  UNL1        0.0238
     20 C         138.5211  144.8185  162.8429 C.ar    1  UNL1        0.1222
     21 N         139.8985  144.3891  162.4323 N.ar    1  UNL1       -0.1467
     22 N         140.5432  143.2062  163.0919 N.ar    1  UNL1       -0.1520
@<TRIPOS>BOND
     1    13    14    1
     2    14    15    1
     3    14    12    1
     4    12    11    1
     5    11     1    1
     6     1     2    2
     7     2    16    1
     8    16    17    1
     9    17    18   ar
    10    18    19   ar
    11    19    20   ar
    12    20    21   ar
    13    21    22   ar
    14     2     3    1
    15     3     4   ar
    16     4     5   ar
    17     5     6   ar
    18     6     7    1
    19     6     8   ar
    20     8     9   ar
    21     9    10    1
    22    10     1    1
    23    22    17   ar
    24     9     3   ar
@<TRIPOS>MOLECULE
*****
 22 24 0 0 0
SMALL
GASTEIGER

@<TRIPOS>ATOM
      1 C         143.7513  139.5520  164.0767 C.2     1  UNL1       -0.0420
      2 C         142.9076  138.8468  165.0969 C.2     1  UNL1       -0.0239
      3 C         141.6017  138.4891  164.4514 C.ar    1  UNL1       -0.0077
      4 C         140.3841  137.7850  164.9725 C.ar    1  UNL1        0.0017
      5 C         139.2030  137.5651  164.0744 C.ar    1  UNL1        0.0296
      6 C         139.2396  138.0493  162.6551 C.ar    1  UNL1        0.1398
      7 F         138.0584  137.8293  161.7570 F       1  UNL1       -0.2042
      8 C         140.4572  138.7533  162.1340 C.ar    1  UNL1        0.0257
      9 C         141.6383  138.9732  163.0321 C.ar    1  UNL1       -0.0162
     10 C         142.9668  139.6301  162.8006 C.3     1  UNL1        0.0481
     11 C         145.1362  140.0855  164.2944 C.3     1  UNL1        0.0394
     12 C         145.5881  141.3176  163.5681 C.3     1  UNL1        0.0765
     13 C         144.4251  143.0964  165.0626 C.3     1  UNL1        0.0897
     14 N         144.8127  142.5946  163.7032 N.3     1  UNL1       -0.2700
     15 C         144.4251  143.3698  162.4790 C.3     1  UNL1        0.0897
     16 C         143.3008  138.5512  166.5140 C.3     1  UNL1        0.0733
     17 C         142.8496  139.4563  167.6219 C.ar    1  UNL1        0.0849
     18 C         142.3745  140.8444  167.3099 C.ar    1  UNL1        0.0185
     19 C         141.9233  141.7495  168.4177 C.ar    1  UNL1        0.0238
     20 C         141.9473  141.2664  169.8376 C.ar    1  UNL1        0.1222
     21 N         142.4225  139.8783  170.1496 N.ar    1  UNL1       -0.1467
     22 N         142.8736  138.9732  169.0418 N.ar    1  UNL1       -0.1520
@<TRIPOS>BOND
     1    13    14    1
     2    14    15    1
     3    14    12    1
     4    12    11    1
     5    11     1    1
     6     1     2    2
     7     2    16    1
     8    16    17    1
     9    17    18   ar
    10    18    19   ar
    11    19    20   ar
    12    20    21   ar
    13    21    22   ar
    14     2     3    1
    15     3     4   ar
    16     4     5   ar
    17     5     6   ar
    18     6     7    1
    19     6     8   ar
    20     8     9   ar
    21     9    10    1
    22    10     1    1
    23    22    17   ar
    24     9     3   ar
@<TRIPOS>MOLECULE
*****
 22 24 0 0 0
SMALL
GASTEIGER

@<TRIPOS>ATOM
      1 C         142.7737  140.8245  167.4627 C.2     1  UNL1       -0.0420
      2 C         142.8279  140.1269  166.1359 C.2     1  UNL1       -0.0239
      3 C         143.2579  141.1268  165.1037 C.ar    1  UNL1       -0.0077
      4 C         143.4842  141.0093  163.6256 C.ar    1  UNL1        0.0017
      5 C         143.9220  142.2074  162.8363 C.ar    1  UNL1        0.0296
      6 C         144.1336  143.5229  163.5253 C.ar    1  UNL1        0.1398
      7 F         144.5715  144.7210  162.7360 F       1  UNL1       -0.2042
      8 C         143.9074  143.6404  165.0034 C.ar    1  UNL1        0.0257
      9 C         143.4695  142.4423  165.7926 C.ar    1  UNL1       -0.0162
     10 C         143.1703  142.2555  167.2506 C.3     1  UNL1        0.0481
     11 C         142.3903  140.2006  168.7718 C.3     1  UNL1        0.0394
     12 C         141.9017  141.0618  169.8985 C.3     1  UNL1        0.0765
     13 C         139.3231  140.7496  169.8385 C.3     1  UNL1        0.0897
     14 N         140.5228  141.6501  169.8493 N.3     1  UNL1       -0.2700
     15 C         140.3434  143.1388  169.8110 C.3     1  UNL1        0.0897
     16 C         142.5082  138.6830  165.8852 C.3     1  UNL1        0.0733
     17 C         141.3734  138.3129  164.9766 C.ar    1  UNL1        0.0849
     18 C         139.9669  138.6819  165.3446 C.ar    1  UNL1        0.0185
     19 C         138.8322  138.3119  164.4361 C.ar    1  UNL1        0.0238
     20 C         139.1040  137.5727  163.1595 C.ar    1  UNL1        0.1222
     21 N         140.5106  137.2036  162.7915 N.ar    1  UNL1       -0.1467
     22 N         141.6453  137.5737  163.6999 N.ar    1  UNL1       -0.1520
@<TRIPOS>BOND
     1    13    14    1
     2    14    15    1
     3    14    12    1
     4    12    11    1
     5    11     1    1
     6     1     2    2
     7     2    16    1
     8    16    17    1
     9    17    18   ar
    10    18    19   ar
    11    19    20   ar
    12    20    21   ar
    13    21    22   ar
    14     2     3    1
    15     3     4   ar
    16     4     5   ar
    17     5     6   ar
    18     6     7    1
    19     6     8   ar
    20     8     9   ar
    21     9    10    1
    22    10     1    1
    23    22    17   ar
    24     9     3   ar
@<TRIPOS>MOLECULE
*****
 22 24 0 0 0
SMALL
GASTEIGER

@<TRIPOS>ATOM
      1 C         139.1337  139.4822  166.0635 C.2     1  UNL1       -0.0420
      2 C         140.1067  140.6150  165.9222 C.2     1  UNL1       -0.0239
      3 C         140.3320  141.2050  167.2828 C.ar    1  UNL1       -0.0077
      4 C         141.1887  142.3425  167.7542 C.ar    1  UNL1        0.0017
      5 C         141.2116  142.7117  169.2078 C.ar    1  UNL1        0.0296
      6 C         140.3778  141.9435  170.1900 C.ar    1  UNL1        0.1398
      7 F         140.4008  142.3128  171.6437 F       1  UNL1       -0.2042
      8 C         139.5212  140.8060  169.7186 C.ar    1  UNL1        0.0257
      9 C         139.4983  140.4368  168.2650 C.ar    1  UNL1       -0.0162
     10 C         138.7577  139.3720  167.5114 C.3     1  UNL1        0.0481
     11 C         138.6259  138.6122  164.9520 C.3     1  UNL1        0.0394
     12 C         139.5480  137.6377  164.2813 C.3     1  UNL1        0.0765
     13 C         141.2826  137.6167  162.3472 C.3     1  UNL1        0.0897
     14 N         139.8714  137.7917  162.8247 N.3     1  UNL1       -0.2700
     15 C         138.7837  138.1208  161.8457 C.3     1  UNL1        0.0897
     16 C         140.7427  141.0768  164.6446 C.3     1  UNL1        0.0733
     17 C         142.1942  140.7998  164.3865 C.ar    1  UNL1        0.0849
     18 C         142.8717  139.6501  165.0714 C.ar    1  UNL1        0.0185
     19 C         144.3231  139.3731  164.8134 C.ar    1  UNL1        0.0238
     20 C         145.0971  140.2459  163.8704 C.ar    1  UNL1        0.1222
     21 N         144.4196  141.3957  163.1855 N.ar    1  UNL1       -0.1467
     22 N         142.9682  141.6727  163.4435 N.ar    1  UNL1       -0.1520
@<TRIPOS>BOND
     1    13    14    1
     2    14    15    1
     3    14    12    1
     4    12    11    1
     5    11     1    1
     6     1     2    2
     7     2    16    1
     8    16    17    1
     9    17    18   ar
    10    18    19   ar
    11    19    20   ar
    12    20    21   ar
    13    21    22   ar
    14     2     3    1
    15     3     4   ar
    16     4     5   ar
    17     5     6   ar
    18     6     7    1
    19     6     8   ar
    20     8     9   ar
    21     9    10    1
    22    10     1    1
    23    22    17   ar
    24     9     3   ar
