@<TRIPOS>MOLECULE
*****
 32 35 0 0 0
SMALL
GASTEIGER

@<TRIPOS>ATOM
      1 N         139.1702  139.7716  163.7678 N.pl3   1  UNL1       -0.3075
      2 C         139.6352  140.9328  162.9399 C.3     1  UNL1        0.0908
      3 C         139.6310  140.8360  161.4430 C.3     1  UNL1        0.0229
      4 C         139.1620  139.5780  160.7741 C.3     1  UNL1        0.0194
      5 C         138.6970  138.4169  161.6020 C.3     1  UNL1        0.0229
      6 C         138.7012  138.5137  163.0989 C.3     1  UNL1        0.0908
      7 C         139.1827  140.0620  168.2584 C.ar    1  UNL1       -0.0165
      8 C         140.0933  140.9358  167.4478 C.ar    1  UNL1       -0.0026
      9 C         140.0892  140.8390  165.9510 C.ar    1  UNL1        0.0142
     10 C         139.1744  139.8684  165.2647 C.ar    1  UNL1        0.0478
     11 C         138.2637  138.9946  166.0753 C.ar    1  UNL1        0.0142
     12 C         138.2678  139.0914  167.5722 C.ar    1  UNL1       -0.0026
     13 C         139.1868  140.1588  169.7553 C.3     1  UNL1        0.0679
     14 O         141.6015  139.2524  170.0679 O.co2   1  UNL1       -0.5488
     15 C         140.4869  140.1569  170.5034 C.2     1  UNL1        0.0547
     16 O         140.6725  141.0595  171.6870 O.co2   1  UNL1       -0.5488
     17 C         139.1578  139.4813  159.2772 C.3     1  UNL1        0.0722
     18 N         140.1870  138.6445  158.5769 N.3     1  UNL1       -0.2724
     19 C         139.8448  137.9579  157.2879 C.3     1  UNL1        0.0758
     20 C         140.8740  137.1211  156.5876 C.3     1  UNL1        0.0609
     21 C         142.2455  136.9709  157.1762 C.3     1  UNL1        0.1687
     22 C         142.5877  137.6574  158.4652 C.3     1  UNL1        0.0609
     23 C         141.5585  138.4943  159.1656 C.3     1  UNL1        0.0758
     24 O         143.2747  136.1341  156.4758 O.3     1  UNL1       -0.4790
     25 C         143.1585  134.6386  156.4855 C.ar    1  UNL1        0.1393
     26 C         142.0843  133.9646  155.6845 C.ar    1  UNL1        0.0378
     27 C         141.9681  132.4692  155.6942 C.ar    1  UNL1        0.0154
     28 C         142.9262  131.6477  156.5050 C.ar    1  UNL1        0.0684
     29 CL        142.8100  130.1523  156.5147 Cl      1  UNL1       -0.0814
     30 C         144.0005  132.3217  157.3060 C.ar    1  UNL1        0.0712
     31 CL        144.9585  131.5003  158.1167 Cl      1  UNL1       -0.0813
     32 C         144.1166  133.8172  157.2963 C.ar    1  UNL1        0.0491
@<TRIPOS>UNITY_ATOM_ATTR
14 1
charge -1
@<TRIPOS>BOND
     1    14    15   ar
     2    15    16   ar
     3    15    13    1
     4    13     7    1
     5     7     8   ar
     6     8     9   ar
     7     9    10   ar
     8    10     1    1
     9     1     2    1
    10     2     3    1
    11     3     4    1
    12     4    17    1
    13    17    18    1
    14    18    19    1
    15    19    20    1
    16    20    21    1
    17    21    24    1
    18    24    25    1
    19    25    26   ar
    20    26    27   ar
    21    27    28   ar
    22    28    29    1
    23    28    30   ar
    24    30    31    1
    25    30    32   ar
    26    21    22    1
    27    22    23    1
    28     4     5    1
    29     5     6    1
    30    10    11   ar
    31    11    12   ar
    32    12     7   ar
    33     6     1    1
    34    23    18    1
    35    32    25   ar
@<TRIPOS>MOLECULE
*****
 32 35 0 0 0
SMALL
GASTEIGER

@<TRIPOS>ATOM
      1 N         140.2847  139.6027  164.9241 N.pl3   1  UNL1       -0.3075
      2 C         140.2541  140.7553  163.9646 C.3     1  UNL1        0.0908
      3 C         139.8908  140.5254  162.5276 C.3     1  UNL1        0.0229
      4 C         139.5580  139.1430  162.0500 C.3     1  UNL1        0.0194
      5 C         139.5886  137.9904  163.0094 C.3     1  UNL1        0.0229
      6 C         139.9519  138.2203  164.4465 C.3     1  UNL1        0.0908
      7 C         141.3748  140.2922  169.2353 C.ar    1  UNL1       -0.0165
      8 C         139.9761  140.5586  168.7635 C.ar    1  UNL1       -0.0026
      9 C         139.6127  140.3287  167.3264 C.ar    1  UNL1        0.0142
     10 C         140.6481  139.8325  166.3611 C.ar    1  UNL1        0.0478
     11 C         142.0468  139.5662  166.8329 C.ar    1  UNL1        0.0142
     12 C         142.4101  139.7961  168.2700 C.ar    1  UNL1       -0.0026
     13 C         141.7381  140.5221  170.6723 C.3     1  UNL1        0.0679
     14 O         142.5983  142.9486  171.0220 O.co2   1  UNL1       -0.5488
     15 C         141.5733  141.8839  171.2790 C.2     1  UNL1        0.0547
     16 O         140.3835  142.1812  172.1428 O.co2   1  UNL1       -0.5488
     17 C         139.1946  138.9132  160.6129 C.3     1  UNL1        0.0722
     18 N         140.2469  138.4887  159.6319 N.3     1  UNL1       -0.2724
     19 C         141.6733  138.3501  160.0750 C.3     1  UNL1        0.0758
     20 C         142.7256  137.9256  159.0940 C.3     1  UNL1        0.0609
     21 C         142.3516  137.6397  157.6698 C.3     1  UNL1        0.1687
     22 C         140.9253  137.7783  157.2266 C.3     1  UNL1        0.0609
     23 C         139.8729  138.2028  158.2077 C.3     1  UNL1        0.0758
     24 O         143.4040  137.2153  156.6887 O.3     1  UNL1       -0.4790
     25 C         143.2788  135.9012  155.9763 C.ar    1  UNL1        0.1393
     26 C         142.6374  135.8406  154.6217 C.ar    1  UNL1        0.0378
     27 C         142.5123  134.5266  153.9093 C.ar    1  UNL1        0.0154
     28 C         143.0286  133.2731  154.5514 C.ar    1  UNL1        0.0684
     29 CL        142.9034  131.9590  153.8390 Cl      1  UNL1       -0.0814
     30 C         143.6700  133.3337  155.9060 C.ar    1  UNL1        0.0712
     31 CL        144.1863  132.0803  156.5482 Cl      1  UNL1       -0.0813
     32 C         143.7951  134.6478  156.6185 C.ar    1  UNL1        0.0491
@<TRIPOS>UNITY_ATOM_ATTR
14 1
charge -1
@<TRIPOS>BOND
     1    14    15   ar
     2    15    16   ar
     3    15    13    1
     4    13     7    1
     5     7     8   ar
     6     8     9   ar
     7     9    10   ar
     8    10     1    1
     9     1     2    1
    10     2     3    1
    11     3     4    1
    12     4    17    1
    13    17    18    1
    14    18    19    1
    15    19    20    1
    16    20    21    1
    17    21    24    1
    18    24    25    1
    19    25    26   ar
    20    26    27   ar
    21    27    28   ar
    22    28    29    1
    23    28    30   ar
    24    30    31    1
    25    30    32   ar
    26    21    22    1
    27    22    23    1
    28     4     5    1
    29     5     6    1
    30    10    11   ar
    31    11    12   ar
    32    12     7   ar
    33     6     1    1
    34    23    18    1
    35    32    25   ar
@<TRIPOS>MOLECULE
*****
 32 35 0 0 0
SMALL
GASTEIGER

@<TRIPOS>ATOM
      1 N         143.2359  140.9136  164.4324 N.pl3   1  UNL1       -0.3075
      2 C         142.4267  141.9362  163.6912 C.3     1  UNL1        0.0908
      3 C         142.6219  142.1210  162.2154 C.3     1  UNL1        0.0229
      4 C         143.6261  141.2832  161.4810 C.3     1  UNL1        0.0194
      5 C         144.4353  140.2606  162.2222 C.3     1  UNL1        0.0229
      6 C         144.2402  140.0758  163.6980 C.3     1  UNL1        0.0908
      7 C         142.6506  140.3593  168.8596 C.ar    1  UNL1       -0.0165
      8 C         142.7623  139.1626  167.9622 C.ar    1  UNL1       -0.0026
      9 C         142.9574  139.3474  166.4865 C.ar    1  UNL1        0.0142
     10 C         143.0408  140.7288  165.9082 C.ar    1  UNL1        0.0478
     11 C         142.9291  141.9255  166.8056 C.ar    1  UNL1        0.0142
     12 C         142.7340  141.7407  168.2813 C.ar    1  UNL1       -0.0026
     13 C         142.4555  140.1745  170.3354 C.3     1  UNL1        0.0679
     14 O         139.9462  140.3063  170.9959 O.co2   1  UNL1       -0.5488
     15 C         141.3323  140.8784  171.0374 C.2     1  UNL1        0.0547
     16 O         141.5951  142.1544  171.7809 O.co2   1  UNL1       -0.5488
     17 C         143.8212  141.4680  160.0052 C.3     1  UNL1        0.0722
     18 N         143.2907  140.4454  159.0447 N.3     1  UNL1       -0.2724
     19 C         143.9160  140.2935  157.6897 C.3     1  UNL1        0.0758
     20 C         143.3855  139.2709  156.7292 C.3     1  UNL1        0.0609
     21 C         142.2296  138.4000  157.1236 C.3     1  UNL1        0.1687
     22 C         141.6043  138.5518  158.4785 C.3     1  UNL1        0.0609
     23 C         142.1348  139.5745  159.4391 C.3     1  UNL1        0.0758
     24 O         141.6991  137.3773  156.1629 O.3     1  UNL1       -0.4790
     25 C         142.0751  135.9338  156.3209 C.ar    1  UNL1        0.1393
     26 C         143.1468  135.5401  157.2937 C.ar    1  UNL1        0.0378
     27 C         143.5227  134.0966  157.4517 C.ar    1  UNL1        0.0154
     28 C         142.8270  133.0468  156.6368 C.ar    1  UNL1        0.0684
     29 CL        143.2029  131.6033  156.7948 Cl      1  UNL1       -0.0814
     30 C         141.7553  133.4406  155.6640 C.ar    1  UNL1        0.0712
     31 CL        141.0595  132.3909  154.8492 Cl      1  UNL1       -0.0813
     32 C         141.3793  134.8842  155.5061 C.ar    1  UNL1        0.0491
@<TRIPOS>UNITY_ATOM_ATTR
14 1
charge -1
@<TRIPOS>BOND
     1    14    15   ar
     2    15    16   ar
     3    15    13    1
     4    13     7    1
     5     7     8   ar
     6     8     9   ar
     7     9    10   ar
     8    10     1    1
     9     1     2    1
    10     2     3    1
    11     3     4    1
    12     4    17    1
    13    17    18    1
    14    18    19    1
    15    19    20    1
    16    20    21    1
    17    21    24    1
    18    24    25    1
    19    25    26   ar
    20    26    27   ar
    21    27    28   ar
    22    28    29    1
    23    28    30   ar
    24    30    31    1
    25    30    32   ar
    26    21    22    1
    27    22    23    1
    28     4     5    1
    29     5     6    1
    30    10    11   ar
    31    11    12   ar
    32    12     7   ar
    33     6     1    1
    34    23    18    1
    35    32    25   ar
@<TRIPOS>MOLECULE
*****
 32 35 0 0 0
SMALL
GASTEIGER

@<TRIPOS>ATOM
      1 N         142.2957  141.1749  164.4147 N.pl3   1  UNL1       -0.3075
      2 C         143.4960  140.3139  164.1542 C.3     1  UNL1        0.0908
      3 C         144.1022  140.2673  162.7829 C.3     1  UNL1        0.0229
      4 C         143.5082  141.0817  161.6722 C.3     1  UNL1        0.0194
      5 C         142.3079  141.9427  161.9327 C.3     1  UNL1        0.0229
      6 C         141.7017  141.9893  163.3040 C.3     1  UNL1        0.0908
      7 C         140.4771  141.3147  168.5285 C.ar    1  UNL1       -0.0165
      8 C         141.0905  140.0429  168.0225 C.ar    1  UNL1       -0.0026
      9 C         141.6967  139.9963  166.6512 C.ar    1  UNL1        0.0142
     10 C         141.6895  141.2215  165.7860 C.ar    1  UNL1        0.0478
     11 C         141.0761  142.4934  166.2920 C.ar    1  UNL1        0.0142
     12 C         140.4699  142.5400  167.6632 C.ar    1  UNL1       -0.0026
     13 C         139.8708  141.3613  169.8997 C.3     1  UNL1        0.0679
     14 O         141.4072  142.2146  171.8133 O.co2   1  UNL1       -0.5488
     15 C         140.2711  142.4415  170.8604 C.2     1  UNL1        0.0547
     16 O         139.5354  143.7487  170.8682 O.co2   1  UNL1       -0.5488
     17 C         144.1144  141.0351  160.3010 C.3     1  UNL1        0.0722
     18 N         143.5259  140.1402  159.2508 N.3     1  UNL1       -0.2724
     19 C         142.4115  139.2006  159.6047 C.3     1  UNL1        0.0758
     20 C         141.8230  138.3057  158.5546 C.3     1  UNL1        0.0609
     21 C         142.3490  138.3503  157.1505 C.3     1  UNL1        0.1687
     22 C         143.4634  139.2899  156.7966 C.3     1  UNL1        0.0609
     23 C         144.0519  140.1849  157.8468 C.3     1  UNL1        0.0758
     24 O         141.7605  137.4554  156.1003 O.3     1  UNL1       -0.4790
     25 C         142.0157  135.9780  156.1451 C.ar    1  UNL1        0.1393
     26 C         141.2033  135.0503  155.2911 C.ar    1  UNL1        0.0378
     27 C         141.4585  133.5729  155.3359 C.ar    1  UNL1        0.0154
     28 C         142.5261  133.0230  156.2348 C.ar    1  UNL1        0.0684
     29 CL        142.7812  131.5456  156.2796 Cl      1  UNL1       -0.0814
     30 C         143.3385  133.9507  157.0889 C.ar    1  UNL1        0.0712
     31 CL        144.4060  133.4009  157.9877 Cl      1  UNL1       -0.0813
     32 C         143.0833  135.4282  157.0440 C.ar    1  UNL1        0.0491
@<TRIPOS>UNITY_ATOM_ATTR
14 1
charge -1
@<TRIPOS>BOND
     1    14    15   ar
     2    15    16   ar
     3    15    13    1
     4    13     7    1
     5     7     8   ar
     6     8     9   ar
     7     9    10   ar
     8    10     1    1
     9     1     2    1
    10     2     3    1
    11     3     4    1
    12     4    17    1
    13    17    18    1
    14    18    19    1
    15    19    20    1
    16    20    21    1
    17    21    24    1
    18    24    25    1
    19    25    26   ar
    20    26    27   ar
    21    27    28   ar
    22    28    29    1
    23    28    30   ar
    24    30    31    1
    25    30    32   ar
    26    21    22    1
    27    22    23    1
    28     4     5    1
    29     5     6    1
    30    10    11   ar
    31    11    12   ar
    32    12     7   ar
    33     6     1    1
    34    23    18    1
    35    32    25   ar
@<TRIPOS>MOLECULE
*****
 32 35 0 0 0
SMALL
GASTEIGER

@<TRIPOS>ATOM
      1 N         141.9251  138.8715  164.7108 N.pl3   1  UNL1       -0.3075
      2 C         143.3457  139.0951  164.2845 C.3     1  UNL1        0.0908
      3 C         143.7920  138.6784  162.9144 C.3     1  UNL1        0.0229
      4 C         142.8177  138.0381  161.9706 C.3     1  UNL1        0.0194
      5 C         141.3971  137.8146  162.3969 C.3     1  UNL1        0.0229
      6 C         140.9508  138.2313  163.7670 C.3     1  UNL1        0.0908
      7 C         140.5861  140.1217  168.8210 C.ar    1  UNL1       -0.0165
      8 C         139.5824  139.9834  167.7150 C.ar    1  UNL1       -0.0026
      9 C         140.0287  139.5667  166.3449 C.ar    1  UNL1        0.0142
     10 C         141.4787  139.2883  166.0809 C.ar    1  UNL1        0.0478
     11 C         142.4825  139.4265  167.1869 C.ar    1  UNL1        0.0142
     12 C         142.0361  139.8432  168.5570 C.ar    1  UNL1       -0.0026
     13 C         140.1397  140.5384  170.1911 C.3     1  UNL1        0.0679
     14 O         140.7466  143.0234  169.7365 O.co2   1  UNL1       -0.5488
     15 C         140.4684  141.9097  170.7022 C.2     1  UNL1        0.0547
     16 O         140.5189  142.1676  172.1790 O.co2   1  UNL1       -0.5488
     17 C         143.2641  137.6214  160.6005 C.3     1  UNL1        0.0722
     18 N         143.3108  138.6272  159.4887 N.3     1  UNL1       -0.2724
     19 C         143.7531  140.0333  159.7673 C.3     1  UNL1        0.0758
     20 C         143.7998  141.0390  158.6555 C.3     1  UNL1        0.0609
     21 C         143.4042  140.6389  157.2651 C.3     1  UNL1        0.1687
     22 C         142.9619  139.2330  156.9864 C.3     1  UNL1        0.0609
     23 C         142.9152  138.2271  158.0982 C.3     1  UNL1        0.0758
     24 O         143.4509  141.6448  156.1532 O.3     1  UNL1       -0.4790
     25 C         144.7649  142.0157  155.5321 C.ar    1  UNL1        0.1393
     26 C         145.9842  141.1855  155.8046 C.ar    1  UNL1        0.0378
     27 C         147.2981  141.5564  155.1835 C.ar    1  UNL1        0.0154
     28 C         147.3929  142.7575  154.2898 C.ar    1  UNL1        0.0684
     29 CL        148.7069  143.1284  153.6687 Cl      1  UNL1       -0.0814
     30 C         146.1736  143.5876  154.0173 C.ar    1  UNL1        0.0712
     31 CL        146.2683  144.7886  153.1237 Cl      1  UNL1       -0.0813
     32 C         144.8596  143.2167  154.6385 C.ar    1  UNL1        0.0491
@<TRIPOS>UNITY_ATOM_ATTR
14 1
charge -1
@<TRIPOS>BOND
     1    14    15   ar
     2    15    16   ar
     3    15    13    1
     4    13     7    1
     5     7     8   ar
     6     8     9   ar
     7     9    10   ar
     8    10     1    1
     9     1     2    1
    10     2     3    1
    11     3     4    1
    12     4    17    1
    13    17    18    1
    14    18    19    1
    15    19    20    1
    16    20    21    1
    17    21    24    1
    18    24    25    1
    19    25    26   ar
    20    26    27   ar
    21    27    28   ar
    22    28    29    1
    23    28    30   ar
    24    30    31    1
    25    30    32   ar
    26    21    22    1
    27    22    23    1
    28     4     5    1
    29     5     6    1
    30    10    11   ar
    31    11    12   ar
    32    12     7   ar
    33     6     1    1
    34    23    18    1
    35    32    25   ar
@<TRIPOS>MOLECULE
*****
 32 35 0 0 0
SMALL
GASTEIGER

@<TRIPOS>ATOM
      1 N         142.0363  142.6113  163.7796 N.pl3   1  UNL1       -0.3075
      2 C         142.1156  144.0320  163.3050 C.3     1  UNL1        0.0908
      3 C         142.4480  144.3267  161.8722 C.3     1  UNL1        0.0229
      4 C         142.7010  143.2007  160.9141 C.3     1  UNL1        0.0194
      5 C         142.6217  141.7800  161.3887 C.3     1  UNL1        0.0229
      6 C         142.2893  141.4853  162.8214 C.3     1  UNL1        0.0908
      7 C         141.0392  141.7272  168.0777 C.ar    1  UNL1       -0.0165
      8 C         139.9681  142.2040  167.1421 C.ar    1  UNL1       -0.0026
      9 C         140.3005  142.4987  165.7094 C.ar    1  UNL1        0.0142
     10 C         141.7039  142.3166  165.2123 C.ar    1  UNL1        0.0478
     11 C         142.7750  141.8398  166.1479 C.ar    1  UNL1        0.0142
     12 C         142.4426  141.5452  167.5806 C.ar    1  UNL1       -0.0026
     13 C         140.7068  141.4325  169.5104 C.3     1  UNL1        0.0679
     14 O         140.5597  142.2148  171.9836 O.co2   1  UNL1       -0.5488
     15 C         140.7319  142.5342  170.5281 C.2     1  UNL1        0.0547
     16 O         140.9292  143.9553  170.0903 O.co2   1  UNL1       -0.5488
     17 C         143.0334  143.4954  159.4814 C.3     1  UNL1        0.0722
     18 N         142.0172  144.1532  158.5957 N.3     1  UNL1       -0.2724
     19 C         142.4360  145.2442  157.6553 C.3     1  UNL1        0.0758
     20 C         141.4197  145.9021  156.7696 C.3     1  UNL1        0.0609
     21 C         139.9847  145.4690  156.8243 C.3     1  UNL1        0.1687
     22 C         139.5658  144.3780  157.7647 C.3     1  UNL1        0.0609
     23 C         140.5821  143.7201  158.6504 C.3     1  UNL1        0.0758
     24 O         138.9684  146.1269  155.9386 O.3     1  UNL1       -0.4790
     25 C         138.9764  147.6169  155.7660 C.ar    1  UNL1        0.1393
     26 C         138.5091  148.5037  156.8818 C.ar    1  UNL1        0.0378
     27 C         138.5171  149.9937  156.7092 C.ar    1  UNL1        0.0154
     28 C         138.9925  150.5969  155.4207 C.ar    1  UNL1        0.0684
     29 CL        139.0005  152.0869  155.2480 Cl      1  UNL1       -0.0814
     30 C         139.4598  149.7101  154.3048 C.ar    1  UNL1        0.0712
     31 CL        139.9351  150.3132  153.0163 Cl      1  UNL1       -0.0813
     32 C         139.4518  148.2200  154.4775 C.ar    1  UNL1        0.0491
@<TRIPOS>UNITY_ATOM_ATTR
14 1
charge -1
@<TRIPOS>BOND
     1    14    15   ar
     2    15    16   ar
     3    15    13    1
     4    13     7    1
     5     7     8   ar
     6     8     9   ar
     7     9    10   ar
     8    10     1    1
     9     1     2    1
    10     2     3    1
    11     3     4    1
    12     4    17    1
    13    17    18    1
    14    18    19    1
    15    19    20    1
    16    20    21    1
    17    21    24    1
    18    24    25    1
    19    25    26   ar
    20    26    27   ar
    21    27    28   ar
    22    28    29    1
    23    28    30   ar
    24    30    31    1
    25    30    32   ar
    26    21    22    1
    27    22    23    1
    28     4     5    1
    29     5     6    1
    30    10    11   ar
    31    11    12   ar
    32    12     7   ar
    33     6     1    1
    34    23    18    1
    35    32    25   ar
@<TRIPOS>MOLECULE
*****
 32 35 0 0 0
SMALL
GASTEIGER

@<TRIPOS>ATOM
      1 N         141.7516  140.0726  158.9582 N.pl3   1  UNL1       -0.3075
      2 C         141.5638  138.6962  159.5240 C.3     1  UNL1        0.0908
      3 C         140.3800  138.3987  160.3959 C.3     1  UNL1        0.0229
      4 C         139.3839  139.4776  160.7019 C.3     1  UNL1        0.0194
      5 C         139.5717  140.8540  160.1360 C.3     1  UNL1        0.0229
      6 C         140.7555  141.1515  159.2642 C.3     1  UNL1        0.0908
      7 C         145.3030  140.9650  156.3427 C.ar    1  UNL1       -0.0165
      8 C         144.9358  141.9026  157.4544 C.ar    1  UNL1       -0.0026
      9 C         143.7520  141.6051  158.3262 C.ar    1  UNL1        0.0142
     10 C         142.9354  140.3700  158.0863 C.ar    1  UNL1        0.0478
     11 C         143.3026  139.4324  156.9746 C.ar    1  UNL1        0.0142
     12 C         144.4864  139.7299  156.1028 C.ar    1  UNL1       -0.0026
     13 C         146.4868  141.2625  155.4708 C.3     1  UNL1        0.0679
     14 O         147.3304  143.6576  154.9215 O.co2   1  UNL1       -0.5488
     15 C         147.3739  142.4308  155.7836 C.2     1  UNL1        0.0547
     16 O         148.3046  142.3725  156.9586 O.co2   1  UNL1       -0.5488
     17 C         138.2001  139.1801  161.5737 C.3     1  UNL1        0.0722
     18 N         138.3543  139.1570  163.0655 N.3     1  UNL1       -0.2724
     19 C         138.0155  140.3745  163.8736 C.3     1  UNL1        0.0758
     20 C         138.1697  140.3513  165.3654 C.3     1  UNL1        0.0609
     21 C         138.6627  139.1106  166.0493 C.3     1  UNL1        0.1687
     22 C         139.0015  137.8931  165.2413 C.3     1  UNL1        0.0609
     23 C         138.8473  137.9163  163.7494 C.3     1  UNL1        0.0758
     24 O         138.8169  139.0874  167.5412 O.3     1  UNL1       -0.4790
     25 C         139.6642  140.1200  168.2238 C.ar    1  UNL1        0.1393
     26 C         139.2597  140.6545  169.5656 C.ar    1  UNL1        0.0378
     27 C         140.1070  141.6870  170.2481 C.ar    1  UNL1        0.0154
     28 C         141.3590  142.1850  169.5888 C.ar    1  UNL1        0.0684
     29 CL        142.2063  143.2175  170.2713 Cl      1  UNL1       -0.0814
     30 C         141.7636  141.6504  168.2470 C.ar    1  UNL1        0.0712
     31 CL        143.0155  142.1484  167.5877 Cl      1  UNL1       -0.0813
     32 C         140.9161  140.6179  167.5644 C.ar    1  UNL1        0.0491
@<TRIPOS>UNITY_ATOM_ATTR
14 1
charge -1
@<TRIPOS>BOND
     1    14    15   ar
     2    15    16   ar
     3    15    13    1
     4    13     7    1
     5     7     8   ar
     6     8     9   ar
     7     9    10   ar
     8    10     1    1
     9     1     2    1
    10     2     3    1
    11     3     4    1
    12     4    17    1
    13    17    18    1
    14    18    19    1
    15    19    20    1
    16    20    21    1
    17    21    24    1
    18    24    25    1
    19    25    26   ar
    20    26    27   ar
    21    27    28   ar
    22    28    29    1
    23    28    30   ar
    24    30    31    1
    25    30    32   ar
    26    21    22    1
    27    22    23    1
    28     4     5    1
    29     5     6    1
    30    10    11   ar
    31    11    12   ar
    32    12     7   ar
    33     6     1    1
    34    23    18    1
    35    32    25   ar
@<TRIPOS>MOLECULE
*****
 32 35 0 0 0
SMALL
GASTEIGER

@<TRIPOS>ATOM
      1 N         140.5767  140.1869  164.0633 N.pl3   1  UNL1       -0.3075
      2 C         141.4739  141.0122  163.1893 C.3     1  UNL1        0.0908
      3 C         141.1829  141.1391  161.7232 C.3     1  UNL1        0.0229
      4 C         139.9948  140.4406  161.1312 C.3     1  UNL1        0.0194
      5 C         139.0976  139.6154  162.0052 C.3     1  UNL1        0.0229
      6 C         139.3886  139.4885  163.4713 C.3     1  UNL1        0.0908
      7 C         141.4496  139.8063  168.4614 C.ar    1  UNL1       -0.0165
      8 C         140.0477  140.0645  167.9946 C.ar    1  UNL1       -0.0026
      9 C         139.7567  140.1914  166.5285 C.ar    1  UNL1        0.0142
     10 C         140.8676  140.0601  165.5293 C.ar    1  UNL1        0.0478
     11 C         142.2696  139.8019  165.9961 C.ar    1  UNL1        0.0142
     12 C         142.5605  139.6750  167.4622 C.ar    1  UNL1       -0.0026
     13 C         141.7405  139.6795  169.9274 C.3     1  UNL1        0.0679
     14 O         142.4998  142.0618  170.6333 O.co2   1  UNL1       -0.5488
     15 C         141.6046  140.8735  170.8251 C.2     1  UNL1        0.0547
     16 O         140.5736  140.8792  171.9146 O.co2   1  UNL1       -0.5488
     17 C         139.7038  140.5675  159.6652 C.3     1  UNL1        0.0722
     18 N         140.3546  139.6341  158.6879 N.3     1  UNL1       -0.2724
     19 C         139.5104  138.7451  157.8236 C.3     1  UNL1        0.0758
     20 C         140.1612  137.8117  156.8462 C.3     1  UNL1        0.0609
     21 C         141.6563  137.7673  156.7332 C.3     1  UNL1        0.1687
     22 C         142.5005  138.6563  157.5974 C.3     1  UNL1        0.0609
     23 C         141.8497  139.5897  158.5748 C.3     1  UNL1        0.0758
     24 O         142.3071  136.8339  155.7558 O.3     1  UNL1       -0.4790
     25 C         142.4894  135.3872  156.1078 C.ar    1  UNL1        0.1393
     26 C         143.4462  134.9945  157.1942 C.ar    1  UNL1        0.0378
     27 C         143.6286  133.5478  157.5461 C.ar    1  UNL1        0.0154
     28 C         142.8541  132.4938  156.8117 C.ar    1  UNL1        0.0684
     29 CL        143.0364  131.0472  157.1636 Cl      1  UNL1       -0.0814
     30 C         141.8973  132.8866  155.7252 C.ar    1  UNL1        0.0712
     31 CL        141.1228  131.8327  154.9908 Cl      1  UNL1       -0.0813
     32 C         141.7150  134.3333  155.3733 C.ar    1  UNL1        0.0491
@<TRIPOS>UNITY_ATOM_ATTR
14 1
charge -1
@<TRIPOS>BOND
     1    14    15   ar
     2    15    16   ar
     3    15    13    1
     4    13     7    1
     5     7     8   ar
     6     8     9   ar
     7     9    10   ar
     8    10     1    1
     9     1     2    1
    10     2     3    1
    11     3     4    1
    12     4    17    1
    13    17    18    1
    14    18    19    1
    15    19    20    1
    16    20    21    1
    17    21    24    1
    18    24    25    1
    19    25    26   ar
    20    26    27   ar
    21    27    28   ar
    22    28    29    1
    23    28    30   ar
    24    30    31    1
    25    30    32   ar
    26    21    22    1
    27    22    23    1
    28     4     5    1
    29     5     6    1
    30    10    11   ar
    31    11    12   ar
    32    12     7   ar
    33     6     1    1
    34    23    18    1
    35    32    25   ar
@<TRIPOS>MOLECULE
*****
 32 35 0 0 0
SMALL
GASTEIGER

@<TRIPOS>ATOM
      1 N         139.8727  140.2532  164.3944 N.pl3   1  UNL1       -0.3075
      2 C         138.4441  140.0841  163.9696 C.3     1  UNL1        0.0908
      3 C         138.1244  139.4426  162.6519 C.3     1  UNL1        0.0229
      4 C         139.2333  138.9702  161.7591 C.3     1  UNL1        0.0194
      5 C         140.6619  139.1392  162.1840 C.3     1  UNL1        0.0229
      6 C         140.9816  139.7807  163.5016 C.3     1  UNL1        0.0908
      7 C         140.8317  142.1777  168.3475 C.ar    1  UNL1       -0.0165
      8 C         140.3289  143.0142  167.2084 C.ar    1  UNL1       -0.0026
      9 C         140.0092  142.3727  165.8908 C.ar    1  UNL1        0.0142
     10 C         140.1923  140.8947  165.7121 C.ar    1  UNL1        0.0478
     11 C         140.6952  140.0582  166.8511 C.ar    1  UNL1        0.0142
     12 C         141.0148  140.6997  168.1688 C.ar    1  UNL1       -0.0026
     13 C         141.1514  142.8192  169.6651 C.3     1  UNL1        0.0679
     14 O         139.1257  143.3733  171.1948 O.co2   1  UNL1       -0.5488
     15 C         140.3124  142.5148  170.8707 C.2     1  UNL1        0.0547
     16 O         140.6599  141.3519  171.7521 O.co2   1  UNL1       -0.5488
     17 C         138.9136  138.3286  160.4414 C.3     1  UNL1        0.0722
     18 N         138.9021  139.1537  159.1888 N.3     1  UNL1       -0.2724
     19 C         139.7624  138.7613  158.0243 C.3     1  UNL1        0.0758
     20 C         139.7508  139.5863  156.7716 C.3     1  UNL1        0.0609
     21 C         138.8790  140.8037  156.6834 C.3     1  UNL1        0.1687
     22 C         138.0188  141.1962  157.8478 C.3     1  UNL1        0.0609
     23 C         138.0303  140.3711  159.1006 C.3     1  UNL1        0.0758
     24 O         138.8675  141.6288  155.4307 O.3     1  UNL1       -0.4790
     25 C         138.8782  143.1261  155.5187 C.ar    1  UNL1        0.1393
     26 C         137.7462  143.9197  154.9367 C.ar    1  UNL1        0.0378
     27 C         137.7568  145.4171  155.0246 C.ar    1  UNL1        0.0154
     28 C         138.8996  146.1209  155.6947 C.ar    1  UNL1        0.0684
     29 CL        138.9103  147.6183  155.7827 Cl      1  UNL1       -0.0814
     30 C         140.0316  145.3273  156.2767 C.ar    1  UNL1        0.0712
     31 CL        141.1743  146.0310  156.9467 Cl      1  UNL1       -0.0813
     32 C         140.0209  143.8299  156.1887 C.ar    1  UNL1        0.0491
@<TRIPOS>UNITY_ATOM_ATTR
14 1
charge -1
@<TRIPOS>BOND
     1    14    15   ar
     2    15    16   ar
     3    15    13    1
     4    13     7    1
     5     7     8   ar
     6     8     9   ar
     7     9    10   ar
     8    10     1    1
     9     1     2    1
    10     2     3    1
    11     3     4    1
    12     4    17    1
    13    17    18    1
    14    18    19    1
    15    19    20    1
    16    20    21    1
    17    21    24    1
    18    24    25    1
    19    25    26   ar
    20    26    27   ar
    21    27    28   ar
    22    28    29    1
    23    28    30   ar
    24    30    31    1
    25    30    32   ar
    26    21    22    1
    27    22    23    1
    28     4     5    1
    29     5     6    1
    30    10    11   ar
    31    11    12   ar
    32    12     7   ar
    33     6     1    1
    34    23    18    1
    35    32    25   ar
