@<TRIPOS>MOLECULE
*****
 30 32 0 0 0
SMALL
GASTEIGER

@<TRIPOS>ATOM
      1 N         139.1100  139.8773  166.8038 N.3     1  UNL1       -0.2715
      2 C         139.2956  140.9187  165.7403 C.3     1  UNL1        0.0610
      3 C         140.6066  141.6366  165.6142 C.3     1  UNL1        0.0375
      4 C         140.7922  142.6779  164.5507 C.3     1  UNL1        0.0950
      5 N         139.6668  143.0014  163.6132 N.pl3   1  UNL1       -0.2785
      6 C         138.3558  142.2835  163.7392 C.3     1  UNL1        0.0950
      7 C         138.1702  141.2421  164.8028 C.3     1  UNL1        0.0375
      8 C         139.8525  144.0428  162.5497 C.ar    1  UNL1        0.2163
      9 N         140.9671  144.0900  161.5469 N.ar    1  UNL1       -0.1804
     10 C         140.7595  145.2962  160.6797 C.ar    1  UNL1        0.2331
     11 N         141.6402  145.7283  159.5449 N.pl3   1  UNL1       -0.3262
     12 N         139.5167  145.9944  161.1464 N.ar    1  UNL1       -0.1354
     13 N         138.9561  145.2197  162.3021 N.ar    1  UNL1       -0.2450
     14 H         142.4388  145.2011  159.3133 H       1  UNL1        0.1452
     15 H         141.4198  146.5390  159.0318 H       1  UNL1        0.1452
     16 H         138.1426  145.4443  162.8092 H       1  UNL1        0.1919
     17 C         139.9649  139.9031  168.0361 C.3     1  UNL1        0.1016
     18 C         140.0266  142.0667  169.4731 C.3     1  UNL1        0.0332
     19 C         139.5184  140.6743  169.2426 C.3     1  UNL1        0.1265
     20 O         138.5637  140.0533  170.2187 O.3     1  UNL1       -0.3830
     21 H         138.3796  140.6810  170.9349 H       1  UNL1        0.2104
     22 C         138.0694  138.8101  166.6351 C.3     1  UNL1        0.0768
     23 C         138.3904  137.5651  165.8625 C.3     1  UNL1        0.0437
     24 C         139.2951  137.6359  164.6681 C.ar    1  UNL1       -0.0207
     25 C         138.7211  137.8963  163.3069 C.ar    1  UNL1       -0.0034
     26 C         139.6258  137.9670  162.1126 C.ar    1  UNL1        0.0111
     27 C         141.1044  137.7774  162.2793 C.ar    1  UNL1        0.0577
     28 CL        142.0090  137.8482  161.0849 Cl      1  UNL1       -0.0822
     29 C         141.6783  137.5170  163.6405 C.ar    1  UNL1        0.0111
     30 C         140.7737  137.4463  164.8348 C.ar    1  UNL1       -0.0034
@<TRIPOS>BOND
     1    19    18    1
     2    19    20    1
     3    19    17    1
     4    17     1    1
     5     1    22    1
     6    22    23    1
     7    23    24    1
     8    24    25   ar
     9    25    26   ar
    10    26    27   ar
    11    27    28    1
    12    27    29   ar
    13    29    30   ar
    14     1     2    1
    15     2     3    1
    16     3     4    1
    17     4     5    1
    18     5     8    1
    19     8     9   ar
    20     9    10   ar
    21    10    11    1
    22    10    12   ar
    23    12    13   ar
    24     5     6    1
    25     6     7    1
    26    30    24   ar
    27     7     2    1
    28    13     8   ar
    29    20    21    1
    30    11    14    1
    31    11    15    1
    32    13    16    1
@<TRIPOS>MOLECULE
*****
 30 32 0 0 0
SMALL
GASTEIGER

@<TRIPOS>ATOM
      1 N         138.1980  139.7808  163.3502 N.3     1  UNL1       -0.2715
      2 C         138.6684  140.0129  164.7555 C.3     1  UNL1        0.0610
      3 C         139.6777  141.0851  165.0411 C.3     1  UNL1        0.0375
      4 C         140.1481  141.3172  166.4464 C.3     1  UNL1        0.0950
      5 N         139.6093  140.4771  167.5661 N.pl3   1  UNL1       -0.2785
      6 C         138.5999  139.4048  167.2805 C.3     1  UNL1        0.0950
      7 C         138.1294  139.1727  165.8753 C.3     1  UNL1        0.0375
      8 C         140.0797  140.7092  168.9714 C.ar    1  UNL1        0.2163
      9 N         141.1368  141.6845  169.3975 N.ar    1  UNL1       -0.1804
     10 C         141.2860  141.5848  170.8868 C.ar    1  UNL1        0.2331
     11 N         142.2337  142.3820  171.7332 N.pl3   1  UNL1       -0.3262
     12 N         140.3212  140.5480  171.3810 N.ar    1  UNL1       -0.1354
     13 N         139.5757  140.0069  170.1972 N.ar    1  UNL1       -0.2450
     14 H         142.8312  143.0428  171.3142 H       1  UNL1        0.1452
     15 H         142.2582  142.2444  172.7077 H       1  UNL1        0.1452
     16 H         138.8781  139.3126  170.2207 H       1  UNL1        0.1919
     17 C         137.4053  140.8380  162.6404 C.3     1  UNL1        0.1016
     18 C         139.4510  141.6701  161.2719 C.3     1  UNL1        0.0332
     19 C         138.1118  141.9314  161.8952 C.3     1  UNL1        0.1265
     20 O         137.4791  143.2859  161.7731 O.3     1  UNL1       -0.3830
     21 H         138.0628  143.8708  161.2651 H       1  UNL1        0.2104
     22 C         138.5202  138.4914  162.6548 C.3     1  UNL1        0.0768
     23 C         139.5512  137.5662  163.2301 C.3     1  UNL1        0.0437
     24 C         140.9406  138.0647  163.4975 C.ar    1  UNL1       -0.0207
     25 C         141.7107  138.7571  162.4124 C.ar    1  UNL1       -0.0034
     26 C         143.0999  139.2556  162.6798 C.ar    1  UNL1        0.0111
     27 C         143.7190  139.0617  164.0322 C.ar    1  UNL1        0.0577
     28 CL        145.1083  139.5602  164.2996 Cl      1  UNL1       -0.0822
     29 C         142.9489  138.3693  165.1173 C.ar    1  UNL1        0.0111
     30 C         141.5596  137.8708  164.8499 C.ar    1  UNL1       -0.0034
@<TRIPOS>BOND
     1    19    18    1
     2    19    20    1
     3    19    17    1
     4    17     1    1
     5     1    22    1
     6    22    23    1
     7    23    24    1
     8    24    25   ar
     9    25    26   ar
    10    26    27   ar
    11    27    28    1
    12    27    29   ar
    13    29    30   ar
    14     1     2    1
    15     2     3    1
    16     3     4    1
    17     4     5    1
    18     5     8    1
    19     8     9   ar
    20     9    10   ar
    21    10    11    1
    22    10    12   ar
    23    12    13   ar
    24     5     6    1
    25     6     7    1
    26    30    24   ar
    27     7     2    1
    28    13     8   ar
    29    20    21    1
    30    11    14    1
    31    11    15    1
    32    13    16    1
@<TRIPOS>MOLECULE
*****
 30 32 0 0 0
SMALL
GASTEIGER

@<TRIPOS>ATOM
      1 N         138.8816  139.0474  163.6883 N.3     1  UNL1       -0.2715
      2 C         139.3571  139.7058  164.9494 C.3     1  UNL1        0.0610
      3 C         140.4704  140.7098  164.8975 C.3     1  UNL1        0.0375
      4 C         140.9459  141.3682  166.1586 C.3     1  UNL1        0.0950
      5 N         140.3082  141.0227  167.4716 N.pl3   1  UNL1       -0.2785
      6 C         139.1949  140.0187  167.5235 C.3     1  UNL1        0.0950
      7 C         138.7194  139.3602  166.2624 C.3     1  UNL1        0.0375
      8 C         140.7837  141.6811  168.7327 C.ar    1  UNL1        0.2163
      9 N         142.1028  142.3690  168.9248 N.ar    1  UNL1       -0.1804
     10 C         142.1580  142.8803  170.3340 C.ar    1  UNL1        0.2331
     11 N         143.2979  143.6316  170.9552 N.pl3   1  UNL1       -0.3262
     12 N         140.8730  142.5084  171.0127 N.ar    1  UNL1       -0.1354
     13 N         140.0237  141.7673  170.0230 N.ar    1  UNL1       -0.2450
     14 H         144.1040  143.8292  170.4257 H       1  UNL1        0.1452
     15 H         143.2401  143.9271  171.8925 H       1  UNL1        0.1452
     16 H         139.1252  141.4016  170.1909 H       1  UNL1        0.1919
     17 C         139.3025  137.6431  163.3707 C.3     1  UNL1        0.1016
     18 C         141.4990  137.0515  164.6259 C.3     1  UNL1        0.0332
     19 C         140.7588  137.2850  163.3422 C.3     1  UNL1        0.1265
     20 O         141.4750  137.1604  162.0301 O.3     1  UNL1       -0.3830
     21 H         142.4026  136.9253  162.1891 H       1  UNL1        0.2104
     22 C         137.9851  139.7932  162.7449 C.3     1  UNL1        0.0768
     23 C         137.3402  141.0759  163.1793 C.3     1  UNL1        0.0437
     24 C         138.0109  142.3869  162.8936 C.ar    1  UNL1       -0.0207
     25 C         138.6935  142.6088  161.5765 C.ar    1  UNL1       -0.0034
     26 C         139.3641  143.9198  161.2909 C.ar    1  UNL1        0.0111
     27 C         139.3520  145.0089  162.3223 C.ar    1  UNL1        0.0577
     28 CL        140.0227  146.3199  162.0366 Cl      1  UNL1       -0.0822
     29 C         138.6694  144.7870  163.6393 C.ar    1  UNL1        0.0111
     30 C         137.9988  143.4760  163.9250 C.ar    1  UNL1       -0.0034
@<TRIPOS>BOND
     1    19    18    1
     2    19    20    1
     3    19    17    1
     4    17     1    1
     5     1    22    1
     6    22    23    1
     7    23    24    1
     8    24    25   ar
     9    25    26   ar
    10    26    27   ar
    11    27    28    1
    12    27    29   ar
    13    29    30   ar
    14     1     2    1
    15     2     3    1
    16     3     4    1
    17     4     5    1
    18     5     8    1
    19     8     9   ar
    20     9    10   ar
    21    10    11    1
    22    10    12   ar
    23    12    13   ar
    24     5     6    1
    25     6     7    1
    26    30    24   ar
    27     7     2    1
    28    13     8   ar
    29    20    21    1
    30    11    14    1
    31    11    15    1
    32    13    16    1
@<TRIPOS>MOLECULE
*****
 30 32 0 0 0
SMALL
GASTEIGER

@<TRIPOS>ATOM
      1 N         142.1469  141.6389  167.7694 N.3     1  UNL1       -0.2715
      2 C         141.7405  142.3960  166.5399 C.3     1  UNL1        0.0610
      3 C         142.7679  142.7600  165.5094 C.3     1  UNL1        0.0375
      4 C         142.3616  143.5171  164.2799 C.3     1  UNL1        0.0950
      5 N         140.9278  143.9102  164.0808 N.pl3   1  UNL1       -0.2785
      6 C         139.9003  143.5462  165.1113 C.3     1  UNL1        0.0950
      7 C         140.3066  142.7891  166.3408 C.3     1  UNL1        0.0375
      8 C         140.5214  144.6672  162.8513 C.ar    1  UNL1        0.2163
      9 N         140.9832  144.3887  161.4515 N.ar    1  UNL1       -0.1804
     10 C         140.3291  145.3851  160.5408 C.ar    1  UNL1        0.2331
     11 N         140.5094  145.4720  159.0542 N.pl3   1  UNL1       -0.3262
     12 N         139.4631  146.2794  161.3777 N.ar    1  UNL1       -0.1354
     13 N         139.5819  145.8357  162.8056 N.ar    1  UNL1       -0.2450
     14 H         141.1026  144.8363  158.5924 H       1  UNL1        0.1452
     15 H         140.0346  146.1646  158.5404 H       1  UNL1        0.1452
     16 H         139.1238  146.2403  163.5774 H       1  UNL1        0.1919
     17 C         142.7955  142.3597  168.9138 C.3     1  UNL1        0.1016
     18 C         140.7258  143.6318  169.8349 C.3     1  UNL1        0.0332
     19 C         141.9664  142.8233  170.0747 C.3     1  UNL1        0.1265
     20 O         142.3778  142.4785  171.4753 O.3     1  UNL1       -0.3830
     21 H         141.7380  142.8520  172.1014 H       1  UNL1        0.2104
     22 C         141.9046  140.1610  167.8544 C.3     1  UNL1        0.0768
     23 C         142.9103  139.2024  167.2892 C.3     1  UNL1        0.0437
     24 C         142.9204  138.9066  165.8186 C.ar    1  UNL1       -0.0207
     25 C         144.0959  139.3129  164.9800 C.ar    1  UNL1       -0.0034
     26 C         144.1060  139.0171  163.5095 C.ar    1  UNL1        0.0111
     27 C         142.9407  138.3151  162.8776 C.ar    1  UNL1        0.0577
     28 CL        142.9509  138.0193  161.4070 Cl      1  UNL1       -0.0822
     29 C         141.7653  137.9089  163.7162 C.ar    1  UNL1        0.0111
     30 C         141.7551  138.2046  165.1867 C.ar    1  UNL1       -0.0034
@<TRIPOS>BOND
     1    19    18    1
     2    19    20    1
     3    19    17    1
     4    17     1    1
     5     1    22    1
     6    22    23    1
     7    23    24    1
     8    24    25   ar
     9    25    26   ar
    10    26    27   ar
    11    27    28    1
    12    27    29   ar
    13    29    30   ar
    14     1     2    1
    15     2     3    1
    16     3     4    1
    17     4     5    1
    18     5     8    1
    19     8     9   ar
    20     9    10   ar
    21    10    11    1
    22    10    12   ar
    23    12    13   ar
    24     5     6    1
    25     6     7    1
    26    30    24   ar
    27     7     2    1
    28    13     8   ar
    29    20    21    1
    30    11    14    1
    31    11    15    1
    32    13    16    1
@<TRIPOS>MOLECULE
*****
 30 32 0 0 0
SMALL
GASTEIGER

@<TRIPOS>ATOM
      1 N         142.4157  141.6270  167.7621 N.3     1  UNL1       -0.2715
      2 C         141.9677  142.3915  166.5518 C.3     1  UNL1        0.0610
      3 C         142.9528  142.7331  165.4734 C.3     1  UNL1        0.0375
      4 C         142.5048  143.4976  164.2631 C.3     1  UNL1        0.0950
      5 N         141.0718  143.9204  164.1311 N.pl3   1  UNL1       -0.2785
      6 C         140.0866  143.5788  165.2095 C.3     1  UNL1        0.0950
      7 C         140.5345  142.8143  166.4198 C.3     1  UNL1        0.0375
      8 C         140.6238  144.6849  162.9208 C.ar    1  UNL1        0.2163
      9 N         141.0237  144.4040  161.5026 N.ar    1  UNL1       -0.1804
     10 C         140.3443  145.4100  160.6215 C.ar    1  UNL1        0.2331
     11 N         140.4638  145.4979  159.1288 N.pl3   1  UNL1       -0.3262
     12 N         139.5245  146.3127  161.4950 N.ar    1  UNL1       -0.1354
     13 N         139.6972  145.8645  162.9161 N.ar    1  UNL1       -0.2450
     14 H         141.0297  144.8562  158.6417 H       1  UNL1        0.1452
     15 H         139.9764  146.1972  158.6363 H       1  UNL1        0.1452
     16 H         139.2764  146.2729  163.7068 H       1  UNL1        0.1919
     17 C         143.2222  142.3116  168.8255 C.3     1  UNL1        0.1016
     18 C         141.0320  143.0215  170.0294 C.3     1  UNL1        0.0332
     19 C         142.5304  143.0089  169.9591 C.3     1  UNL1        0.1265
     20 O         143.3369  143.6938  171.0224 O.3     1  UNL1       -0.3830
     21 H         142.7398  144.0913  171.6753 H       1  UNL1        0.2104
     22 C         142.0571  140.1779  167.9090 C.3     1  UNL1        0.0768
     23 C         142.4468  139.1970  166.8431 C.3     1  UNL1        0.0437
     24 C         141.4564  138.8039  165.7873 C.ar    1  UNL1       -0.0207
     25 C         140.0212  139.2214  165.9125 C.ar    1  UNL1       -0.0034
     26 C         139.0309  138.8282  164.8567 C.ar    1  UNL1        0.0111
     27 C         139.4759  138.0176  163.6757 C.ar    1  UNL1        0.0577
     28 CL        138.4856  137.6245  162.6198 Cl      1  UNL1       -0.0822
     29 C         140.9112  137.6002  163.5504 C.ar    1  UNL1        0.0111
     30 C         141.9014  137.9933  164.6062 C.ar    1  UNL1       -0.0034
@<TRIPOS>BOND
     1    19    18    1
     2    19    20    1
     3    19    17    1
     4    17     1    1
     5     1    22    1
     6    22    23    1
     7    23    24    1
     8    24    25   ar
     9    25    26   ar
    10    26    27   ar
    11    27    28    1
    12    27    29   ar
    13    29    30   ar
    14     1     2    1
    15     2     3    1
    16     3     4    1
    17     4     5    1
    18     5     8    1
    19     8     9   ar
    20     9    10   ar
    21    10    11    1
    22    10    12   ar
    23    12    13   ar
    24     5     6    1
    25     6     7    1
    26    30    24   ar
    27     7     2    1
    28    13     8   ar
    29    20    21    1
    30    11    14    1
    31    11    15    1
    32    13    16    1
@<TRIPOS>MOLECULE
*****
 30 32 0 0 0
SMALL
GASTEIGER

@<TRIPOS>ATOM
      1 N         139.4370  140.0205  162.3979 N.3     1  UNL1       -0.2715
      2 C         139.6130  140.0365  163.8874 C.3     1  UNL1        0.0610
      3 C         138.7598  139.1574  164.7530 C.3     1  UNL1        0.0375
      4 C         138.9359  139.1735  166.2426 C.3     1  UNL1        0.0950
      5 N         139.9650  140.0687  166.8665 N.pl3   1  UNL1       -0.2785
      6 C         140.8182  140.9479  166.0010 C.3     1  UNL1        0.0950
      7 C         140.6422  140.9318  164.5114 C.3     1  UNL1        0.0375
      8 C         140.1410  140.0848  168.3561 C.ar    1  UNL1        0.2163
      9 N         141.4197  140.3620  169.0899 N.ar    1  UNL1       -0.1804
     10 C         141.1382  140.2750  170.5607 C.ar    1  UNL1        0.2331
     11 N         142.1344  140.4825  171.6628 N.pl3   1  UNL1       -0.3262
     12 N         139.6856  139.9441  170.7359 N.ar    1  UNL1       -0.1354
     13 N         139.0694  139.8265  169.3734 N.ar    1  UNL1       -0.2450
     14 H         143.0704  140.6974  171.4462 H       1  UNL1        0.1452
     15 H         141.8522  140.4038  172.6027 H       1  UNL1        0.1452
     16 H         138.1270  139.6167  169.1807 H       1  UNL1        0.1919
     17 C         138.7641  141.1709  161.7097 C.3     1  UNL1        0.1016
     18 C         137.9273  143.4689  162.5867 C.3     1  UNL1        0.0332
     19 C         137.7405  141.9877  162.4413 C.3     1  UNL1        0.1265
     20 O         136.5302  141.3232  163.0274 O.3     1  UNL1       -0.3830
     21 H         135.9747  141.9889  163.4625 H       1  UNL1        0.2104
     22 C         139.9338  138.8538  161.5965 C.3     1  UNL1        0.0768
     23 C         141.2758  138.9191  160.9296 C.3     1  UNL1        0.0437
     24 C         142.4332  139.5622  161.6346 C.ar    1  UNL1       -0.0207
     25 C         142.8642  140.9487  161.2581 C.ar    1  UNL1       -0.0034
     26 C         144.0216  141.5916  161.9632 C.ar    1  UNL1        0.0111
     27 C         144.7479  140.8481  163.0447 C.ar    1  UNL1        0.0577
     28 CL        145.9053  141.4912  163.7497 Cl      1  UNL1       -0.0822
     29 C         144.3169  139.4616  163.4211 C.ar    1  UNL1        0.0111
     30 C         143.1595  138.8187  162.7161 C.ar    1  UNL1       -0.0034
@<TRIPOS>BOND
     1    19    18    1
     2    19    20    1
     3    19    17    1
     4    17     1    1
     5     1    22    1
     6    22    23    1
     7    23    24    1
     8    24    25   ar
     9    25    26   ar
    10    26    27   ar
    11    27    28    1
    12    27    29   ar
    13    29    30   ar
    14     1     2    1
    15     2     3    1
    16     3     4    1
    17     4     5    1
    18     5     8    1
    19     8     9   ar
    20     9    10   ar
    21    10    11    1
    22    10    12   ar
    23    12    13   ar
    24     5     6    1
    25     6     7    1
    26    30    24   ar
    27     7     2    1
    28    13     8   ar
    29    20    21    1
    30    11    14    1
    31    11    15    1
    32    13    16    1
@<TRIPOS>MOLECULE
*****
 30 32 0 0 0
SMALL
GASTEIGER

@<TRIPOS>ATOM
      1 N         141.3547  141.3559  166.5199 N.3     1  UNL1       -0.2715
      2 C         141.2554  142.0886  165.2148 C.3     1  UNL1        0.0610
      3 C         140.5827  143.4279  165.1558 C.3     1  UNL1        0.0375
      4 C         140.4834  144.1606  163.8507 C.3     1  UNL1        0.0950
      5 N         141.0569  143.5539  162.6045 N.pl3   1  UNL1       -0.2785
      6 C         141.7297  142.2144  162.6634 C.3     1  UNL1        0.0950
      7 C         141.8289  141.4818  163.9685 C.3     1  UNL1        0.0375
      8 C         140.9576  144.2865  161.2994 C.ar    1  UNL1        0.2163
      9 N         142.0949  144.5881  160.3688 N.ar    1  UNL1       -0.1804
     10 C         141.5437  145.3342  159.1900 C.ar    1  UNL1        0.2331
     11 N         142.3320  145.8332  158.0154 N.pl3   1  UNL1       -0.3262
     12 N         140.0659  145.4937  159.3919 N.ar    1  UNL1       -0.1354
     13 N         139.7037  144.8462  160.6956 N.ar    1  UNL1       -0.2450
     14 H         143.3034  145.6788  157.9732 H       1  UNL1        0.1452
     15 H         141.8780  146.3150  157.2868 H       1  UNL1        0.1452
     16 H         138.8014  144.7971  161.0863 H       1  UNL1        0.1919
     17 C         142.6854  140.8586  167.0015 C.3     1  UNL1        0.1016
     18 C         143.0479  138.4744  166.0351 C.3     1  UNL1        0.0332
     19 C         142.9049  139.3902  167.2145 C.3     1  UNL1        0.1265
     20 O         142.9813  138.8374  168.6068 O.3     1  UNL1       -0.3830
     21 H         143.1254  137.8790  168.5668 H       1  UNL1        0.2104
     22 C         140.1232  141.1206  167.3435 C.3     1  UNL1        0.0768
     23 C         139.2694  139.9141  167.0880 C.3     1  UNL1        0.0437
     24 C         138.9779  139.4860  165.6802 C.ar    1  UNL1       -0.0207
     25 C         139.4264  138.1383  165.1980 C.ar    1  UNL1       -0.0034
     26 C         139.1349  137.7103  163.7903 C.ar    1  UNL1        0.0111
     27 C         138.3949  138.6299  162.8648 C.ar    1  UNL1        0.0577
     28 CL        138.1034  138.2018  161.4570 Cl      1  UNL1       -0.0822
     29 C         137.9464  139.9776  163.3469 C.ar    1  UNL1        0.0111
     30 C         138.2379  140.4056  164.7546 C.ar    1  UNL1       -0.0034
@<TRIPOS>BOND
     1    19    18    1
     2    19    20    1
     3    19    17    1
     4    17     1    1
     5     1    22    1
     6    22    23    1
     7    23    24    1
     8    24    25   ar
     9    25    26   ar
    10    26    27   ar
    11    27    28    1
    12    27    29   ar
    13    29    30   ar
    14     1     2    1
    15     2     3    1
    16     3     4    1
    17     4     5    1
    18     5     8    1
    19     8     9   ar
    20     9    10   ar
    21    10    11    1
    22    10    12   ar
    23    12    13   ar
    24     5     6    1
    25     6     7    1
    26    30    24   ar
    27     7     2    1
    28    13     8   ar
    29    20    21    1
    30    11    14    1
    31    11    15    1
    32    13    16    1
@<TRIPOS>MOLECULE
*****
 30 32 0 0 0
SMALL
GASTEIGER

@<TRIPOS>ATOM
      1 N         138.5741  139.3440  163.3298 N.3     1  UNL1       -0.2715
      2 C         139.2467  139.5717  164.6510 C.3     1  UNL1        0.0610
      3 C         140.6725  140.0353  164.6968 C.3     1  UNL1        0.0375
      4 C         141.3450  140.2631  166.0181 C.3     1  UNL1        0.0950
      5 N         140.5918  140.0272  167.2936 N.pl3   1  UNL1       -0.2785
      6 C         139.1659  139.5635  167.2479 C.3     1  UNL1        0.0950
      7 C         138.4934  139.3358  165.9266 C.3     1  UNL1        0.0375
      8 C         141.2644  140.2549  168.6149 C.ar    1  UNL1        0.2163
      9 N         142.4265  139.4775  169.1583 N.ar    1  UNL1       -0.1804
     10 C         142.7732  140.0422  170.5040 C.ar    1  UNL1        0.2331
     11 N         143.8745  139.5644  171.4035 N.pl3   1  UNL1       -0.3262
     12 N         141.8254  141.1685  170.7924 N.ar    1  UNL1       -0.1354
     13 N         140.8929  141.2999  169.6248 N.ar    1  UNL1       -0.2450
     14 H         144.4470  138.8136  171.1246 H       1  UNL1        0.1452
     15 H         144.0247  140.0016  172.2727 H       1  UNL1        0.1452
     16 H         140.1649  141.9568  169.5368 H       1  UNL1        0.1919
     17 C         138.8382  138.0833  162.5612 C.3     1  UNL1        0.1016
     18 C         140.5552  138.5535  160.6689 C.3     1  UNL1        0.0332
     19 C         140.1841  137.8509  161.9412 C.3     1  UNL1        0.1265
     20 O         141.1590  136.9159  162.5934 O.3     1  UNL1       -0.3830
     21 H         141.9735  136.8799  162.0679 H       1  UNL1        0.2104
     22 C         137.6374  140.3771  162.7770 C.3     1  UNL1        0.0768
     23 C         137.4639  141.6878  163.4855 C.3     1  UNL1        0.0437
     24 C         138.6108  142.6507  163.5729 C.ar    1  UNL1       -0.0207
     25 C         138.8375  143.4348  164.8314 C.ar    1  UNL1       -0.0034
     26 C         139.9843  144.3977  164.9188 C.ar    1  UNL1        0.0111
     27 C         140.9045  144.5764  163.7477 C.ar    1  UNL1        0.0577
     28 CL        142.0514  145.5393  163.8352 Cl      1  UNL1       -0.0822
     29 C         140.6778  143.7922  162.4893 C.ar    1  UNL1        0.0111
     30 C         139.5310  142.8294  162.4019 C.ar    1  UNL1       -0.0034
@<TRIPOS>BOND
     1    19    18    1
     2    19    20    1
     3    19    17    1
     4    17     1    1
     5     1    22    1
     6    22    23    1
     7    23    24    1
     8    24    25   ar
     9    25    26   ar
    10    26    27   ar
    11    27    28    1
    12    27    29   ar
    13    29    30   ar
    14     1     2    1
    15     2     3    1
    16     3     4    1
    17     4     5    1
    18     5     8    1
    19     8     9   ar
    20     9    10   ar
    21    10    11    1
    22    10    12   ar
    23    12    13   ar
    24     5     6    1
    25     6     7    1
    26    30    24   ar
    27     7     2    1
    28    13     8   ar
    29    20    21    1
    30    11    14    1
    31    11    15    1
    32    13    16    1
@<TRIPOS>MOLECULE
*****
 30 32 0 0 0
SMALL
GASTEIGER

@<TRIPOS>ATOM
      1 N         140.0379  139.7127  162.0071 N.3     1  UNL1       -0.2715
      2 C         140.0158  139.7610  163.5061 C.3     1  UNL1        0.0610
      3 C         140.9606  140.6645  164.2415 C.3     1  UNL1        0.0375
      4 C         140.9385  140.7128  165.7405 C.3     1  UNL1        0.0950
      5 N         139.9715  139.8575  166.5043 N.pl3   1  UNL1       -0.2785
      6 C         139.0265  138.9539  165.7689 C.3     1  UNL1        0.0950
      7 C         139.0487  138.9056  164.2699 C.3     1  UNL1        0.0375
      8 C         139.9493  139.9058  168.0033 C.ar    1  UNL1        0.2163
      9 N         141.1269  140.1691  168.8945 N.ar    1  UNL1       -0.1804
     10 C         140.6511  140.1253  170.3164 C.ar    1  UNL1        0.2331
     11 N         141.4981  140.3350  171.5364 N.pl3   1  UNL1       -0.3262
     12 N         139.1795  139.8348  170.3040 N.ar    1  UNL1       -0.1354
     13 N         138.7458  139.6991  168.8744 N.ar    1  UNL1       -0.2450
     14 H         142.4602  140.5213  171.4416 H       1  UNL1        0.1452
     15 H         141.0920  140.2864  172.4319 H       1  UNL1        0.1452
     16 H         137.8318  139.5080  168.5627 H       1  UNL1        0.1919
     17 C         141.2500  139.1948  161.2912 C.3     1  UNL1        0.1016
     18 C         143.5388  138.1339  161.9125 C.3     1  UNL1        0.0332
     19 C         142.0408  138.0631  161.8776 C.3     1  UNL1        0.1265
     20 O         141.3338  136.8606  162.4290 O.3     1  UNL1       -0.3830
     21 H         141.9870  136.2280  162.7666 H       1  UNL1        0.2104
     22 C         138.8479  140.1825  161.2239 C.3     1  UNL1        0.0768
     23 C         138.5976  141.6510  161.0485 C.3     1  UNL1        0.0437
     24 C         138.5599  142.5537  162.2459 C.ar    1  UNL1       -0.0207
     25 C         139.5701  143.6533  162.3883 C.ar    1  UNL1       -0.0034
     26 C         139.5323  144.5559  163.5857 C.ar    1  UNL1        0.0111
     27 C         138.4843  144.3591  164.6406 C.ar    1  UNL1        0.0577
     28 CL        138.4466  145.2618  165.8380 Cl      1  UNL1       -0.0822
     29 C         137.4741  143.2595  164.4982 C.ar    1  UNL1        0.0111
     30 C         137.5118  142.3568  163.3008 C.ar    1  UNL1       -0.0034
@<TRIPOS>BOND
     1    19    18    1
     2    19    20    1
     3    19    17    1
     4    17     1    1
     5     1    22    1
     6    22    23    1
     7    23    24    1
     8    24    25   ar
     9    25    26   ar
    10    26    27   ar
    11    27    28    1
    12    27    29   ar
    13    29    30   ar
    14     1     2    1
    15     2     3    1
    16     3     4    1
    17     4     5    1
    18     5     8    1
    19     8     9   ar
    20     9    10   ar
    21    10    11    1
    22    10    12   ar
    23    12    13   ar
    24     5     6    1
    25     6     7    1
    26    30    24   ar
    27     7     2    1
    28    13     8   ar
    29    20    21    1
    30    11    14    1
    31    11    15    1
    32    13    16    1
