@<TRIPOS>MOLECULE
*****
 23 26 0 0 0
SMALL
GASTEIGER

@<TRIPOS>ATOM
      1 S         139.5195  139.9536  167.7941 S.3     1  UNL1       -0.0709
      2 C         137.7480  139.5168  161.6075 C.2     1  UNL1        0.1223
      3 C         138.1755  138.0881  161.7678 C.2     1  UNL1        0.0343
      4 C         138.7051  137.6071  163.0862 C.2     1  UNL1        0.0232
      5 C         138.8072  138.5549  164.2443 C.2     1  UNL1        0.0975
      6 N         139.2862  138.3697  165.6536 N.2     1  UNL1       -0.2200
      7 C         139.1548  139.6841  166.3644 C.2     1  UNL1        0.1901
      8 N         138.5945  140.6816  165.3943 N.2     1  UNL1       -0.2236
      9 C         138.3797  139.9837  164.0840 C.2     1  UNL1        0.0863
     10 C         137.8501  140.4647  162.7656 C.3     1  UNL1        0.1112
     11 C         138.1672  140.3321  159.1766 C.3     1  UNL1        0.2520
     12 O         137.2183  139.9978  160.2891 O.2     1  UNL1       -0.4753
     13 C         140.9389  140.2738  168.1585 C.3     1  UNL1        0.0913
     14 C         142.0018  140.2800  167.1000 C.ar    1  UNL1       -0.0109
     15 C         142.6471  138.9935  166.6776 C.ar    1  UNL1       -0.0034
     16 C         143.7100  138.9997  165.6192 C.ar    1  UNL1       -0.0003
     17 C         144.1276  140.2924  164.9832 C.ar    1  UNL1       -0.0000
     18 C         145.1904  140.2986  163.9248 C.ar    1  UNL1       -0.0000
     19 C         145.6080  141.5913  163.2888 C.ar    1  UNL1       -0.0000
     20 C         144.9627  142.8778  163.7112 C.ar    1  UNL1       -0.0000
     21 C         143.8998  142.8716  164.7696 C.ar    1  UNL1       -0.0000
     22 C         143.4823  141.5789  165.4056 C.ar    1  UNL1       -0.0003
     23 C         142.4194  141.5727  166.4641 C.ar    1  UNL1       -0.0034
@<TRIPOS>BOND
     1    11    12    1
     2    12     2    1
     3     2     3    2
     4     3     4    1
     5     4     5    2
     6     5     6    1
     7     6     7    2
     8     7     1    1
     9     1    13    1
    10    13    14    1
    11    14    15   ar
    12    15    16   ar
    13    16    17   ar
    14    17    18   ar
    15    18    19   ar
    16    19    20   ar
    17    20    21   ar
    18    21    22   ar
    19    22    23   ar
    20     7     8    1
    21     8     9    2
    22     9    10    1
    23    10     2    1
    24     9     5    1
    25    23    14   ar
    26    22    17   ar
@<TRIPOS>MOLECULE
*****
 23 26 0 0 0
SMALL
GASTEIGER

@<TRIPOS>ATOM
      1 S         138.3036  138.5649  165.8306 S.3     1  UNL1       -0.0709
      2 C         138.7124  144.4468  163.2155 C.2     1  UNL1        0.1223
      3 C         139.4695  144.7614  164.4716 C.2     1  UNL1        0.0343
      4 C         139.6884  143.6941  165.5026 C.2     1  UNL1        0.0232
      5 C         139.1502  142.3122  165.2775 C.2     1  UNL1        0.0975
      6 N         139.2089  141.0646  166.1081 N.2     1  UNL1       -0.2200
      7 C         138.4879  139.9789  165.3654 C.2     1  UNL1        0.1901
      8 N         137.9838  140.5555  164.0757 N.2     1  UNL1       -0.2236
      9 C         138.3931  141.9976  164.0213 C.2     1  UNL1        0.0863
     10 C         138.1741  143.0649  162.9904 C.3     1  UNL1        0.1112
     11 C         139.6637  146.2661  161.6233 C.3     1  UNL1        0.2520
     12 O         138.4935  145.5142  162.1845 O.2     1  UNL1       -0.4753
     13 C         139.0947  137.4582  165.1986 C.3     1  UNL1        0.0913
     14 C         140.3456  137.7731  164.4330 C.ar    1  UNL1       -0.0109
     15 C         141.6099  138.1086  165.1672 C.ar    1  UNL1       -0.0034
     16 C         142.8608  138.4235  164.4017 C.ar    1  UNL1       -0.0003
     17 C         142.8474  138.4029  162.9019 C.ar    1  UNL1       -0.0000
     18 C         144.0983  138.7178  162.1363 C.ar    1  UNL1       -0.0000
     19 C         144.0849  138.6972  160.6365 C.ar    1  UNL1       -0.0000
     20 C         142.8207  138.3617  159.9023 C.ar    1  UNL1       -0.0000
     21 C         141.5698  138.0468  160.6679 C.ar    1  UNL1       -0.0000
     22 C         141.5832  138.0674  162.1676 C.ar    1  UNL1       -0.0003
     23 C         140.3323  137.7525  162.9333 C.ar    1  UNL1       -0.0034
@<TRIPOS>BOND
     1    11    12    1
     2    12     2    1
     3     2     3    2
     4     3     4    1
     5     4     5    2
     6     5     6    1
     7     6     7    2
     8     7     1    1
     9     1    13    1
    10    13    14    1
    11    14    15   ar
    12    15    16   ar
    13    16    17   ar
    14    17    18   ar
    15    18    19   ar
    16    19    20   ar
    17    20    21   ar
    18    21    22   ar
    19    22    23   ar
    20     7     8    1
    21     8     9    2
    22     9    10    1
    23    10     2    1
    24     9     5    1
    25    23    14   ar
    26    22    17   ar
@<TRIPOS>MOLECULE
*****
 23 26 0 0 0
SMALL
GASTEIGER

@<TRIPOS>ATOM
      1 S         138.9434  137.3186  164.9304 S.3     1  UNL1       -0.0709
      2 C         143.0274  138.6768  160.1262 C.2     1  UNL1        0.1223
      3 C         144.0212  138.8072  161.2421 C.2     1  UNL1        0.0343
      4 C         143.5893  138.5838  162.6611 C.2     1  UNL1        0.0232
      5 C         142.1635  138.2300  162.9642 C.2     1  UNL1        0.0975
      6 N         141.4505  137.9533  164.2546 N.2     1  UNL1       -0.2200
      7 C         140.0160  137.6519  163.9362 C.2     1  UNL1        0.1901
      8 N         139.8424  137.7423  162.4490 N.2     1  UNL1       -0.2236
      9 C         141.1696  138.0995  161.8483 C.2     1  UNL1        0.0863
     10 C         141.6015  138.3229  160.4293 C.3     1  UNL1        0.1112
     11 C         142.7624  138.1830  157.5893 C.3     1  UNL1        0.2520
     12 O         143.4594  138.9002  158.7072 O.2     1  UNL1       -0.4753
     13 C         138.4733  138.3588  165.9035 C.3     1  UNL1        0.0913
     14 C         138.7961  139.8050  165.6696 C.ar    1  UNL1       -0.0109
     15 C         139.8810  140.4693  166.4644 C.ar    1  UNL1       -0.0034
     16 C         140.2037  141.9154  166.2306 C.ar    1  UNL1       -0.0003
     17 C         139.4416  142.6971  165.2019 C.ar    1  UNL1       -0.0000
     18 C         139.7644  144.1432  164.9681 C.ar    1  UNL1       -0.0000
     19 C         139.0023  144.9249  163.9395 C.ar    1  UNL1       -0.0000
     20 C         137.9174  144.2605  163.1447 C.ar    1  UNL1       -0.0000
     21 C         137.5946  142.8145  163.3785 C.ar    1  UNL1       -0.0000
     22 C         138.3567  142.0328  164.4071 C.ar    1  UNL1       -0.0003
     23 C         138.0340  140.5867  164.6410 C.ar    1  UNL1       -0.0034
@<TRIPOS>BOND
     1    11    12    1
     2    12     2    1
     3     2     3    2
     4     3     4    1
     5     4     5    2
     6     5     6    1
     7     6     7    2
     8     7     1    1
     9     1    13    1
    10    13    14    1
    11    14    15   ar
    12    15    16   ar
    13    16    17   ar
    14    17    18   ar
    15    18    19   ar
    16    19    20   ar
    17    20    21   ar
    18    21    22   ar
    19    22    23   ar
    20     7     8    1
    21     8     9    2
    22     9    10    1
    23    10     2    1
    24     9     5    1
    25    23    14   ar
    26    22    17   ar
@<TRIPOS>MOLECULE
*****
 23 26 0 0 0
SMALL
GASTEIGER

@<TRIPOS>ATOM
      1 S         145.2183  140.8400  163.8603 S.3     1  UNL1       -0.0709
      2 C         140.7925  144.8849  161.4824 C.2     1  UNL1        0.1223
      3 C         140.8072  145.4416  162.8751 C.2     1  UNL1        0.0343
      4 C         141.7105  144.8433  163.9125 C.2     1  UNL1        0.0232
      5 C         142.5991  143.6883  163.5571 C.2     1  UNL1        0.0975
      6 N         143.5876  142.8976  164.3619 N.2     1  UNL1       -0.2200
      7 C         144.1838  141.8522  163.4666 C.2     1  UNL1        0.1901
      8 N         143.5638  141.9968  162.1084 N.2     1  UNL1       -0.2236
      9 C         142.5844  143.1315  162.1643 C.2     1  UNL1        0.0863
     10 C         141.6811  143.7298  161.1269 C.3     1  UNL1        0.1112
     11 C         140.2346  145.3627  158.9903 C.3     1  UNL1        0.2520
     12 O         139.8892  145.4831  160.4450 O.2     1  UNL1       -0.4753
     13 C         144.8050  139.5764  164.5549 C.3     1  UNL1        0.0913
     14 C         143.3497  139.2493  164.7137 C.ar    1  UNL1       -0.0109
     15 C         142.6471  138.4301  163.6719 C.ar    1  UNL1       -0.0034
     16 C         141.1919  138.1031  163.8307 C.ar    1  UNL1       -0.0003
     17 C         140.4391  138.5953  165.0312 C.ar    1  UNL1       -0.0000
     18 C         138.9839  138.2682  165.1899 C.ar    1  UNL1       -0.0000
     19 C         138.2312  138.7604  166.3904 C.ar    1  UNL1       -0.0000
     20 C         138.9338  139.5797  167.4321 C.ar    1  UNL1       -0.0000
     21 C         140.3891  139.9067  167.2734 C.ar    1  UNL1       -0.0000
     22 C         141.1417  139.4145  166.0729 C.ar    1  UNL1       -0.0003
     23 C         142.5971  139.7415  165.9141 C.ar    1  UNL1       -0.0034
@<TRIPOS>BOND
     1    11    12    1
     2    12     2    1
     3     2     3    2
     4     3     4    1
     5     4     5    2
     6     5     6    1
     7     6     7    2
     8     7     1    1
     9     1    13    1
    10    13    14    1
    11    14    15   ar
    12    15    16   ar
    13    16    17   ar
    14    17    18   ar
    15    18    19   ar
    16    19    20   ar
    17    20    21   ar
    18    21    22   ar
    19    22    23   ar
    20     7     8    1
    21     8     9    2
    22     9    10    1
    23    10     2    1
    24     9     5    1
    25    23    14   ar
    26    22    17   ar
@<TRIPOS>MOLECULE
*****
 23 26 0 0 0
SMALL
GASTEIGER

@<TRIPOS>ATOM
      1 S         145.5695  141.6850  163.6704 S.3     1  UNL1       -0.0709
      2 C         140.7911  145.1781  161.1076 C.2     1  UNL1        0.1223
      3 C         140.6176  145.6544  162.5193 C.2     1  UNL1        0.0343
      4 C         141.5174  145.1360  163.6017 C.2     1  UNL1        0.0232
      5 C         142.5906  144.1412  163.2724 C.2     1  UNL1        0.0975
      6 N         143.6204  143.4575  164.1222 N.2     1  UNL1       -0.2200
      7 C         144.4304  142.5586  163.2356 C.2     1  UNL1        0.1901
      8 N         143.9012  142.6868  161.8380 N.2     1  UNL1       -0.2236
      9 C         142.7642  143.6649  161.8607 C.2     1  UNL1        0.0863
     10 C         141.8644  144.1833  160.7782 C.3     1  UNL1        0.1112
     11 C         140.2586  145.4963  158.5847 C.3     1  UNL1        0.2520
     12 O         139.8914  145.6965  160.0252 O.2     1  UNL1       -0.4753
     13 C         145.3080  140.2746  164.1090 C.3     1  UNL1        0.0913
     14 C         143.9068  139.8291  164.4060 C.ar    1  UNL1       -0.0109
     15 C         143.3128  140.0754  165.7611 C.ar    1  UNL1       -0.0034
     16 C         141.9116  139.6300  166.0581 C.ar    1  UNL1       -0.0003
     17 C         141.1044  138.9381  165.0000 C.ar    1  UNL1       -0.0000
     18 C         139.7032  138.4927  165.2970 C.ar    1  UNL1       -0.0000
     19 C         138.8960  137.8008  164.2388 C.ar    1  UNL1       -0.0000
     20 C         139.4900  137.5544  162.8836 C.ar    1  UNL1       -0.0000
     21 C         140.8911  137.9999  162.5866 C.ar    1  UNL1       -0.0000
     22 C         141.6983  138.6917  163.6448 C.ar    1  UNL1       -0.0003
     23 C         143.0996  139.1372  163.3478 C.ar    1  UNL1       -0.0034
@<TRIPOS>BOND
     1    11    12    1
     2    12     2    1
     3     2     3    2
     4     3     4    1
     5     4     5    2
     6     5     6    1
     7     6     7    2
     8     7     1    1
     9     1    13    1
    10    13    14    1
    11    14    15   ar
    12    15    16   ar
    13    16    17   ar
    14    17    18   ar
    15    18    19   ar
    16    19    20   ar
    17    20    21   ar
    18    21    22   ar
    19    22    23   ar
    20     7     8    1
    21     8     9    2
    22     9    10    1
    23    10     2    1
    24     9     5    1
    25    23    14   ar
    26    22    17   ar
@<TRIPOS>MOLECULE
*****
 23 26 0 0 0
SMALL
GASTEIGER

@<TRIPOS>ATOM
      1 S         138.9318  137.8406  165.0143 S.3     1  UNL1       -0.0709
      2 C         142.9286  138.3819  159.9808 C.2     1  UNL1        0.1223
      3 C         143.9777  138.4826  161.0481 C.2     1  UNL1        0.0343
      4 C         143.5854  138.4130  162.4942 C.2     1  UNL1        0.0232
      5 C         142.1441  138.2426  162.8730 C.2     1  UNL1        0.0975
      6 N         141.4615  138.1420  164.2049 N.2     1  UNL1       -0.2200
      7 C         139.9905  137.9791  163.9607 C.2     1  UNL1        0.1901
      8 N         139.7640  137.9791  162.4779 N.2     1  UNL1       -0.2236
      9 C         141.0950  138.1419  161.8057 C.2     1  UNL1        0.0863
     10 C         141.4872  138.2115  160.3595 C.3     1  UNL1        0.1112
     11 C         143.4108  139.7805  157.8451 C.3     1  UNL1        0.2520
     12 O         143.3209  138.4515  158.5346 O.2     1  UNL1       -0.4753
     13 C         138.2651  139.0627  165.5729 C.3     1  UNL1        0.0913
     14 C         139.0347  139.9991  166.4566 C.ar    1  UNL1       -0.0109
     15 C         139.6169  141.2589  165.8877 C.ar    1  UNL1       -0.0034
     16 C         140.3864  142.1953  166.7714 C.ar    1  UNL1       -0.0003
     17 C         140.5737  141.8719  168.2241 C.ar    1  UNL1       -0.0000
     18 C         141.3432  142.8083  169.1078 C.ar    1  UNL1       -0.0000
     19 C         141.5305  142.4849  170.5605 C.ar    1  UNL1       -0.0000
     20 C         140.9482  141.2250  171.1294 C.ar    1  UNL1       -0.0000
     21 C         140.1787  140.2886  170.2457 C.ar    1  UNL1       -0.0000
     22 C         139.9915  140.6121  168.7931 C.ar    1  UNL1       -0.0003
     23 C         139.2219  139.6756  167.9093 C.ar    1  UNL1       -0.0034
@<TRIPOS>BOND
     1    11    12    1
     2    12     2    1
     3     2     3    2
     4     3     4    1
     5     4     5    2
     6     5     6    1
     7     6     7    2
     8     7     1    1
     9     1    13    1
    10    13    14    1
    11    14    15   ar
    12    15    16   ar
    13    16    17   ar
    14    17    18   ar
    15    18    19   ar
    16    19    20   ar
    17    20    21   ar
    18    21    22   ar
    19    22    23   ar
    20     7     8    1
    21     8     9    2
    22     9    10    1
    23    10     2    1
    24     9     5    1
    25    23    14   ar
    26    22    17   ar
@<TRIPOS>MOLECULE
*****
 23 26 0 0 0
SMALL
GASTEIGER

@<TRIPOS>ATOM
      1 S         137.6526  144.3001  164.4425 S.3     1  UNL1       -0.0709
      2 C         138.3746  139.9451  159.7397 C.2     1  UNL1        0.1223
      3 C         138.1718  138.9642  160.8562 C.2     1  UNL1        0.0343
      4 C         137.9446  139.4562  162.2548 C.2     1  UNL1        0.0232
      5 C         137.9201  140.9292  162.5370 C.2     1  UNL1        0.0975
      6 N         137.7193  141.7051  163.8050 N.2     1  UNL1       -0.2200
      7 C         137.7979  143.1656  163.4721 C.2     1  UNL1        0.1901
      8 N         138.0474  143.2924  161.9985 N.2     1  UNL1       -0.2236
      9 C         138.1229  141.9102  161.4205 C.2     1  UNL1        0.0863
     10 C         138.3501  141.4182  160.0218 C.3     1  UNL1        0.1112
     11 C         139.8716  138.7330  157.9963 C.3     1  UNL1        0.2520
     12 O         138.6018  139.4531  158.3410 O.2     1  UNL1       -0.4753
     13 C         138.8493  144.8006  165.1959 C.3     1  UNL1        0.0913
     14 C         140.1485  144.0544  165.1212 C.ar    1  UNL1       -0.0109
     15 C         140.4679  143.0009  166.1401 C.ar    1  UNL1       -0.0034
     16 C         141.7670  142.2548  166.0654 C.ar    1  UNL1       -0.0003
     17 C         142.7468  142.5622  164.9719 C.ar    1  UNL1       -0.0000
     18 C         144.0459  141.8161  164.8973 C.ar    1  UNL1       -0.0000
     19 C         145.0255  142.1235  163.8038 C.ar    1  UNL1       -0.0000
     20 C         144.7060  143.1770  162.7849 C.ar    1  UNL1       -0.0000
     21 C         143.4069  143.9231  162.8596 C.ar    1  UNL1       -0.0000
     22 C         142.4273  143.6157  163.9530 C.ar    1  UNL1       -0.0003
     23 C         141.1281  144.3618  164.0277 C.ar    1  UNL1       -0.0034
@<TRIPOS>BOND
     1    11    12    1
     2    12     2    1
     3     2     3    2
     4     3     4    1
     5     4     5    2
     6     5     6    1
     7     6     7    2
     8     7     1    1
     9     1    13    1
    10    13    14    1
    11    14    15   ar
    12    15    16   ar
    13    16    17   ar
    14    17    18   ar
    15    18    19   ar
    16    19    20   ar
    17    20    21   ar
    18    21    22   ar
    19    22    23   ar
    20     7     8    1
    21     8     9    2
    22     9    10    1
    23    10     2    1
    24     9     5    1
    25    23    14   ar
    26    22    17   ar
@<TRIPOS>MOLECULE
*****
 23 26 0 0 0
SMALL
GASTEIGER

@<TRIPOS>ATOM
      1 S         142.5342  139.0915  164.3305 S.3     1  UNL1       -0.0709
      2 C         138.8590  144.0415  162.4349 C.2     1  UNL1        0.1223
      3 C         137.7429  143.0567  162.6206 C.2     1  UNL1        0.0343
      4 C         138.0433  141.6604  163.0790 C.2     1  UNL1        0.0232
      5 C         139.4597  141.2489  163.3517 C.2     1  UNL1        0.0975
      6 N         140.0575  139.9519  163.8105 N.2     1  UNL1       -0.2200
      7 C         141.5430  140.1352  163.9085 C.2     1  UNL1        0.1901
      8 N         141.8634  141.5454  163.5101 N.2     1  UNL1       -0.2236
      9 C         140.5758  142.2337  163.1661 C.2     1  UNL1        0.0863
     10 C         140.2755  143.6300  162.7077 C.3     1  UNL1        0.1112
     11 C         139.6784  146.3555  161.5842 C.3     1  UNL1        0.2520
     12 O         138.5587  145.4378  161.9766 O.2     1  UNL1       -0.4753
     13 C         143.0295  139.0563  165.7460 C.3     1  UNL1        0.0913
     14 C         142.5360  140.0671  166.7385 C.ar    1  UNL1       -0.0109
     15 C         143.2482  141.3784  166.8906 C.ar    1  UNL1       -0.0034
     16 C         142.7549  142.3891  167.8831 C.ar    1  UNL1       -0.0003
     17 C         141.5493  142.0885  168.7235 C.ar    1  UNL1       -0.0000
     18 C         141.0559  143.0992  169.7160 C.ar    1  UNL1       -0.0000
     19 C         139.8504  142.7986  170.5563 C.ar    1  UNL1       -0.0000
     20 C         139.1382  141.4872  170.4042 C.ar    1  UNL1       -0.0000
     21 C         139.6315  140.4765  169.4117 C.ar    1  UNL1       -0.0000
     22 C         140.8371  140.7772  168.5714 C.ar    1  UNL1       -0.0003
     23 C         141.3305  139.7664  167.5789 C.ar    1  UNL1       -0.0034
@<TRIPOS>BOND
     1    11    12    1
     2    12     2    1
     3     2     3    2
     4     3     4    1
     5     4     5    2
     6     5     6    1
     7     6     7    2
     8     7     1    1
     9     1    13    1
    10    13    14    1
    11    14    15   ar
    12    15    16   ar
    13    16    17   ar
    14    17    18   ar
    15    18    19   ar
    16    19    20   ar
    17    20    21   ar
    18    21    22   ar
    19    22    23   ar
    20     7     8    1
    21     8     9    2
    22     9    10    1
    23    10     2    1
    24     9     5    1
    25    23    14   ar
    26    22    17   ar
@<TRIPOS>MOLECULE
*****
 23 26 0 0 0
SMALL
GASTEIGER

@<TRIPOS>ATOM
      1 S         138.7129  138.2378  163.0536 S.3     1  UNL1       -0.0709
      2 C         140.3302  140.2132  168.9769 C.2     1  UNL1        0.1223
      3 C         141.7256  140.1334  168.4325 C.2     1  UNL1        0.0343
      4 C         141.9540  139.7010  167.0145 C.2     1  UNL1        0.0232
      5 C         140.7868  139.3485  166.1407 C.2     1  UNL1        0.0975
      6 N         140.7025  138.8928  164.7141 N.2     1  UNL1       -0.2200
      7 C         139.2550  138.6910  164.3767 C.2     1  UNL1        0.1901
      8 N         138.4446  139.0219  165.5948 N.2     1  UNL1       -0.2236
      9 C         139.3913  139.4283  166.6850 C.2     1  UNL1        0.0863
     10 C         139.1630  139.8606  168.1031 C.3     1  UNL1        0.1112
     11 C         141.0454  141.6137  171.0450 C.3     1  UNL1        0.2520
     12 O         140.1019  140.6456  170.3949 O.2     1  UNL1       -0.4753
     13 C         137.9837  139.2063  162.1703 C.3     1  UNL1        0.0913
     14 C         138.2448  140.6782  162.2951 C.ar    1  UNL1       -0.0109
     15 C         137.3255  141.5363  163.1128 C.ar    1  UNL1       -0.0034
     16 C         137.5866  143.0081  163.2376 C.ar    1  UNL1       -0.0003
     17 C         138.7669  143.6219  162.5446 C.ar    1  UNL1       -0.0000
     18 C         139.0279  145.0937  162.6694 C.ar    1  UNL1       -0.0000
     19 C         140.2082  145.7074  161.9764 C.ar    1  UNL1       -0.0000
     20 C         141.1275  144.8493  161.1587 C.ar    1  UNL1       -0.0000
     21 C         140.8664  143.3775  161.0339 C.ar    1  UNL1       -0.0000
     22 C         139.6861  142.7638  161.7269 C.ar    1  UNL1       -0.0003
     23 C         139.4250  141.2919  161.6021 C.ar    1  UNL1       -0.0034
@<TRIPOS>BOND
     1    11    12    1
     2    12     2    1
     3     2     3    2
     4     3     4    1
     5     4     5    2
     6     5     6    1
     7     6     7    2
     8     7     1    1
     9     1    13    1
    10    13    14    1
    11    14    15   ar
    12    15    16   ar
    13    16    17   ar
    14    17    18   ar
    15    18    19   ar
    16    19    20   ar
    17    20    21   ar
    18    21    22   ar
    19    22    23   ar
    20     7     8    1
    21     8     9    2
    22     9    10    1
    23    10     2    1
    24     9     5    1
    25    23    14   ar
    26    22    17   ar
