@<TRIPOS>MOLECULE
*****
 30 34 0 0 0
SMALL
GASTEIGER

@<TRIPOS>ATOM
      1 C         137.6071  138.4017  166.7743 C.3     1  UNL1        0.0014
      2 C         138.9984  138.9341  166.5980 C.3     1  UNL1        0.0163
      3 C         139.5607  139.9068  167.5917 C.3     1  UNL1        0.0058
      4 C         140.9519  140.4392  167.4154 C.3     1  UNL1        0.0237
      5 C         141.7808  139.9988  166.2453 C.3     1  UNL1        0.0203
      6 C         141.2185  139.0261  165.2516 C.3     1  UNL1        0.0579
      7 C         139.8273  138.4938  165.4279 C.3     1  UNL1        0.0173
      8 N         140.1414  138.0785  164.6353 N.3     1  UNL1       -0.2725
      9 C         138.8596  138.0254  165.4127 C.3     1  UNL1        0.0721
     10 C         141.5143  141.4120  168.4092 C.ar    1  UNL1       -0.0225
     11 C         140.6451  142.4984  168.9697 C.ar    1  UNL1       -0.0043
     12 C         141.2074  143.4711  169.9634 C.ar    1  UNL1       -0.0003
     13 C         142.6390  143.3575  170.3967 C.ar    1  UNL1       -0.0000
     14 C         143.5083  142.2711  169.8361 C.ar    1  UNL1       -0.0003
     15 C         142.9459  141.2983  168.8424 C.ar    1  UNL1       -0.0043
     16 C         140.4399  137.3228  163.3744 C.3     1  UNL1        0.0939
     17 C         139.9517  137.8428  162.0549 C.3     1  UNL1        0.1123
     18 N         139.3303  139.2054  161.9692 N.am    1  UNL1       -0.2606
     19 C         137.8610  139.5068  161.9821 C.3     1  UNL1        0.1169
     20 C         137.6918  140.9935  161.8764 C.3     1  UNL1        0.1212
     21 N         139.0565  141.6109  161.7982 N.am    1  UNL1       -0.2413
     22 C         140.0692  140.5059  161.8556 C.2     1  UNL1        0.3111
     23 O         141.5593  140.6720  161.8076 O.2     1  UNL1       -0.2520
     24 C         139.3561  143.0761  161.6829 C.ar    1  UNL1        0.0562
     25 C         138.9446  144.0143  162.7786 C.ar    1  UNL1        0.0150
     26 C         139.2441  145.4795  162.6633 C.ar    1  UNL1        0.0021
     27 C         139.9552  146.0066  161.4521 C.ar    1  UNL1        0.0115
     28 C         140.3666  145.0685  160.3565 C.ar    1  UNL1        0.0589
     29 CL        141.0777  145.5955  159.1454 Cl      1  UNL1       -0.0822
     30 C         140.0671  143.6032  160.4719 C.ar    1  UNL1        0.0263
@<TRIPOS>BOND
     1     2     1    1
     2     2     3    1
     3     3     4    1
     4     4    10    1
     5    10    11   ar
     6    11    12   ar
     7    12    13   ar
     8    13    14   ar
     9    14    15   ar
    10     4     5    1
    11     6     5    1
    12     6     7    1
    13     6     8    1
    14     8    16    1
    15    16    17    1
    16    17    18    1
    17    18    19    1
    18    19    20    1
    19    20    21    1
    20    21    24    1
    21    24    25   ar
    22    25    26   ar
    23    26    27   ar
    24    27    28   ar
    25    28    29    1
    26    28    30   ar
    27    21    22   am
    28    22    23    2
    29     8     9    1
    30     7     2    1
    31    22    18   am
    32     9     2    1
    33    15    10   ar
    34    30    24   ar
@<TRIPOS>MOLECULE
*****
 30 34 0 0 0
SMALL
GASTEIGER

@<TRIPOS>ATOM
      1 C         139.4293  137.6186  163.1869 C.3     1  UNL1        0.0014
      2 C         140.5840  138.1469  163.9855 C.3     1  UNL1        0.0163
      3 C         140.3710  138.6093  165.3964 C.3     1  UNL1        0.0058
      4 C         141.5257  139.1376  166.1949 C.3     1  UNL1        0.0237
      5 C         142.8934  139.2035  165.5824 C.3     1  UNL1        0.0203
      6 C         143.1064  138.7412  164.1715 C.3     1  UNL1        0.0579
      7 C         141.9517  138.2129  163.3730 C.3     1  UNL1        0.0173
      8 N         142.6929  138.1563  162.7841 N.3     1  UNL1       -0.2725
      9 C         141.2366  137.8132  162.6768 C.3     1  UNL1        0.0721
     10 C         141.3127  139.6000  167.6059 C.ar    1  UNL1       -0.0225
     11 C         142.4526  139.5830  168.5808 C.ar    1  UNL1       -0.0043
     12 C         142.2397  140.0454  169.9918 C.ar    1  UNL1       -0.0003
     13 C         140.8869  140.5248  170.4279 C.ar    1  UNL1       -0.0000
     14 C         139.7470  140.5418  169.4530 C.ar    1  UNL1       -0.0003
     15 C         139.9600  140.0794  168.0419 C.ar    1  UNL1       -0.0043
     16 C         143.7212  137.9839  161.7058 C.3     1  UNL1        0.0939
     17 C         144.1070  139.1494  160.8441 C.3     1  UNL1        0.1123
     18 N         143.8357  140.5490  161.3102 N.am    1  UNL1       -0.2606
     19 C         144.8340  141.4809  161.9306 C.3     1  UNL1        0.1169
     20 C         144.1337  142.7704  162.2415 C.3     1  UNL1        0.1212
     21 N         142.7024  142.6355  161.8133 N.am    1  UNL1       -0.2413
     22 C         142.5182  141.2627  161.2377 C.2     1  UNL1        0.3111
     23 O         141.2409  140.7018  160.6864 O.2     1  UNL1       -0.2520
     24 C         141.6416  143.6886  161.9387 C.ar    1  UNL1        0.0562
     25 C         141.3602  144.6103  160.7892 C.ar    1  UNL1        0.0150
     26 C         140.2994  145.6633  160.9146 C.ar    1  UNL1        0.0021
     27 C         139.5200  145.7946  162.1896 C.ar    1  UNL1        0.0115
     28 C         139.8014  144.8730  163.3389 C.ar    1  UNL1        0.0589
     29 CL        139.0220  145.0043  164.6139 Cl      1  UNL1       -0.0822
     30 C         140.8622  143.8199  163.2136 C.ar    1  UNL1        0.0263
@<TRIPOS>BOND
     1     2     1    1
     2     2     3    1
     3     3     4    1
     4     4    10    1
     5    10    11   ar
     6    11    12   ar
     7    12    13   ar
     8    13    14   ar
     9    14    15   ar
    10     4     5    1
    11     6     5    1
    12     6     7    1
    13     6     8    1
    14     8    16    1
    15    16    17    1
    16    17    18    1
    17    18    19    1
    18    19    20    1
    19    20    21    1
    20    21    24    1
    21    24    25   ar
    22    25    26   ar
    23    26    27   ar
    24    27    28   ar
    25    28    29    1
    26    28    30   ar
    27    21    22   am
    28    22    23    2
    29     8     9    1
    30     7     2    1
    31    22    18   am
    32     9     2    1
    33    15    10   ar
    34    30    24   ar
@<TRIPOS>MOLECULE
*****
 30 34 0 0 0
SMALL
GASTEIGER

@<TRIPOS>ATOM
      1 C         140.9793  136.8832  164.3216 C.3     1  UNL1        0.0014
      2 C         140.1317  138.0806  164.6348 C.3     1  UNL1        0.0163
      3 C         140.3451  138.8371  165.9123 C.3     1  UNL1        0.0058
      4 C         139.4975  140.0344  166.2254 C.3     1  UNL1        0.0237
      5 C         138.4366  140.4752  165.2610 C.3     1  UNL1        0.0203
      6 C         138.2233  139.7187  163.9834 C.3     1  UNL1        0.0579
      7 C         139.0708  138.5214  163.6703 C.3     1  UNL1        0.0173
      8 N         138.4865  138.5992  162.9275 N.3     1  UNL1       -0.2725
      9 C         139.5884  137.6534  163.3035 C.3     1  UNL1        0.0721
     10 C         139.7108  140.7909  167.5030 C.ar    1  UNL1       -0.0225
     11 C         139.2848  140.1909  168.8101 C.ar    1  UNL1       -0.0043
     12 C         139.4980  140.9473  170.0876 C.ar    1  UNL1       -0.0003
     13 C         140.1374  142.3040  170.0582 C.ar    1  UNL1       -0.0000
     14 C         140.5635  142.9040  168.7512 C.ar    1  UNL1       -0.0003
     15 C         140.3502  142.1475  167.4736 C.ar    1  UNL1       -0.0043
     16 C         137.6662  138.5431  161.6729 C.3     1  UNL1        0.0939
     17 C         137.9066  139.5360  160.5746 C.3     1  UNL1        0.1123
     18 N         138.7012  140.7786  160.8476 N.am    1  UNL1       -0.2606
     19 C         138.1586  142.1754  160.9142 C.3     1  UNL1        0.1169
     20 C         139.3001  143.1026  161.2096 C.3     1  UNL1        0.1212
     21 N         140.5482  142.2788  161.3257 N.am    1  UNL1       -0.2413
     22 C         140.1782  140.8425  161.1019 C.2     1  UNL1        0.3111
     23 O         141.1197  139.6751  161.1279 O.2     1  UNL1       -0.2520
     24 C         141.9248  142.7999  161.6147 C.ar    1  UNL1        0.0562
     25 C         143.0835  142.3693  160.7649 C.ar    1  UNL1        0.0150
     26 C         144.4600  142.8903  161.0540 C.ar    1  UNL1        0.0021
     27 C         144.6779  143.8420  162.1928 C.ar    1  UNL1        0.0115
     28 C         143.5193  144.2725  163.0425 C.ar    1  UNL1        0.0589
     29 CL        143.7372  145.2242  164.1814 Cl      1  UNL1       -0.0822
     30 C         142.1427  143.7515  162.7535 C.ar    1  UNL1        0.0263
@<TRIPOS>BOND
     1     2     1    1
     2     2     3    1
     3     3     4    1
     4     4    10    1
     5    10    11   ar
     6    11    12   ar
     7    12    13   ar
     8    13    14   ar
     9    14    15   ar
    10     4     5    1
    11     6     5    1
    12     6     7    1
    13     6     8    1
    14     8    16    1
    15    16    17    1
    16    17    18    1
    17    18    19    1
    18    19    20    1
    19    20    21    1
    20    21    24    1
    21    24    25   ar
    22    25    26   ar
    23    26    27   ar
    24    27    28   ar
    25    28    29    1
    26    28    30   ar
    27    21    22   am
    28    22    23    2
    29     8     9    1
    30     7     2    1
    31    22    18   am
    32     9     2    1
    33    15    10   ar
    34    30    24   ar
@<TRIPOS>MOLECULE
*****
 30 34 0 0 0
SMALL
GASTEIGER

@<TRIPOS>ATOM
      1 C         144.7806  139.6988  164.1728 C.3     1  UNL1        0.0014
      2 C         143.4664  139.7945  164.8897 C.3     1  UNL1        0.0163
      3 C         143.3153  140.7234  166.0577 C.3     1  UNL1        0.0058
      4 C         142.0012  140.8191  166.7746 C.3     1  UNL1        0.0237
      5 C         140.8383  139.9859  166.3235 C.3     1  UNL1        0.0203
      6 C         140.9895  139.0571  165.1555 C.3     1  UNL1        0.0579
      7 C         142.3035  138.9614  164.4386 C.3     1  UNL1        0.0173
      8 N         141.7382  138.3538  163.9797 N.3     1  UNL1       -0.2725
      9 C         143.1683  138.7795  163.8263 C.3     1  UNL1        0.0721
     10 C         141.8499  141.7480  167.9427 C.ar    1  UNL1       -0.0225
     11 C         140.5483  142.4569  168.1735 C.ar    1  UNL1       -0.0043
     12 C         140.3971  143.3858  169.3415 C.ar    1  UNL1       -0.0003
     13 C         141.5474  143.6057  170.2788 C.ar    1  UNL1       -0.0000
     14 C         142.8490  142.8968  170.0480 C.ar    1  UNL1       -0.0003
     15 C         143.0002  141.9679  168.8799 C.ar    1  UNL1       -0.0043
     16 C         141.0199  137.3521  163.1249 C.3     1  UNL1        0.0939
     17 C         140.1332  137.8176  162.0083 C.3     1  UNL1        0.1123
     18 N         139.4978  139.1749  162.0713 N.am    1  UNL1       -0.2606
     19 C         138.0749  139.4657  162.4467 C.3     1  UNL1        0.1169
     20 C         137.8714  140.9502  162.3773 C.3     1  UNL1        0.1212
     21 N         139.1684  141.5769  161.9590 N.am    1  UNL1       -0.2413
     22 C         140.1736  140.4797  161.7699 C.2     1  UNL1        0.3111
     23 O         141.6035  140.6562  161.3526 O.2     1  UNL1       -0.2520
     24 C         139.4167  143.0433  161.7641 C.ar    1  UNL1        0.0562
     25 C         139.1298  144.0070  162.8772 C.ar    1  UNL1        0.0150
     26 C         139.3781  145.4734  162.6823 C.ar    1  UNL1        0.0021
     27 C         139.9133  145.9760  161.3742 C.ar    1  UNL1        0.0115
     28 C         140.2001  145.0123  160.2612 C.ar    1  UNL1        0.0589
     29 CL        140.7353  145.5150  158.9531 Cl      1  UNL1       -0.0822
     30 C         139.9518  143.5459  160.4561 C.ar    1  UNL1        0.0263
@<TRIPOS>BOND
     1     2     1    1
     2     2     3    1
     3     3     4    1
     4     4    10    1
     5    10    11   ar
     6    11    12   ar
     7    12    13   ar
     8    13    14   ar
     9    14    15   ar
    10     4     5    1
    11     6     5    1
    12     6     7    1
    13     6     8    1
    14     8    16    1
    15    16    17    1
    16    17    18    1
    17    18    19    1
    18    19    20    1
    19    20    21    1
    20    21    24    1
    21    24    25   ar
    22    25    26   ar
    23    26    27   ar
    24    27    28   ar
    25    28    29    1
    26    28    30   ar
    27    21    22   am
    28    22    23    2
    29     8     9    1
    30     7     2    1
    31    22    18   am
    32     9     2    1
    33    15    10   ar
    34    30    24   ar
@<TRIPOS>MOLECULE
*****
 30 34 0 0 0
SMALL
GASTEIGER

@<TRIPOS>ATOM
      1 C         140.4793  137.0712  163.9027 C.3     1  UNL1        0.0014
      2 C         141.5948  138.0046  164.2697 C.3     1  UNL1        0.0163
      3 C         141.6151  138.6541  165.6216 C.3     1  UNL1        0.0058
      4 C         142.7305  139.5874  165.9885 C.3     1  UNL1        0.0237
      5 C         143.8256  139.8713  165.0036 C.3     1  UNL1        0.0203
      6 C         143.8053  139.2218  163.6516 C.3     1  UNL1        0.0579
      7 C         142.6899  138.2885  163.2847 C.3     1  UNL1        0.0173
      8 N         143.2462  138.3068  162.5168 N.3     1  UNL1       -0.2725
      9 C         141.9699  137.6040  162.8737 C.3     1  UNL1        0.0721
     10 C         142.7508  140.2370  167.3405 C.ar    1  UNL1       -0.0225
     11 C         142.9670  141.7166  167.4585 C.ar    1  UNL1       -0.0043
     12 C         142.9873  142.3662  168.8103 C.ar    1  UNL1       -0.0003
     13 C         142.7915  141.5361  170.0443 C.ar    1  UNL1       -0.0000
     14 C         142.5754  140.0564  169.9264 C.ar    1  UNL1       -0.0003
     15 C         142.5551  139.4069  168.5744 C.ar    1  UNL1       -0.0043
     16 C         143.9799  138.1944  161.2134 C.3     1  UNL1        0.0939
     17 C         143.6447  139.1201  160.0818 C.3     1  UNL1        0.1123
     18 N         142.4535  140.0263  160.1817 N.am    1  UNL1       -0.2606
     19 C         141.0724  139.7256  159.6797 C.3     1  UNL1        0.1169
     20 C         140.1997  140.9058  159.9890 C.3     1  UNL1        0.1212
     21 N         141.0414  141.9358  160.6821 N.am    1  UNL1       -0.2413
     22 C         142.4344  141.3923  160.8013 C.2     1  UNL1        0.3111
     23 O         143.6031  142.0918  161.4296 O.2     1  UNL1       -0.2520
     24 C         140.5726  143.2743  161.1704 C.ar    1  UNL1        0.0562
     25 C         140.6318  144.4668  160.2624 C.ar    1  UNL1        0.0150
     26 C         140.1630  145.8053  160.7507 C.ar    1  UNL1        0.0021
     27 C         139.6349  145.9514  162.1471 C.ar    1  UNL1        0.0115
     28 C         139.5758  144.7590  163.0551 C.ar    1  UNL1        0.0589
     29 CL        139.0477  144.9050  164.4515 Cl      1  UNL1       -0.0822
     30 C         140.0446  143.4204  162.5668 C.ar    1  UNL1        0.0263
@<TRIPOS>BOND
     1     2     1    1
     2     2     3    1
     3     3     4    1
     4     4    10    1
     5    10    11   ar
     6    11    12   ar
     7    12    13   ar
     8    13    14   ar
     9    14    15   ar
    10     4     5    1
    11     6     5    1
    12     6     7    1
    13     6     8    1
    14     8    16    1
    15    16    17    1
    16    17    18    1
    17    18    19    1
    18    19    20    1
    19    20    21    1
    20    21    24    1
    21    24    25   ar
    22    25    26   ar
    23    26    27   ar
    24    27    28   ar
    25    28    29    1
    26    28    30   ar
    27    21    22   am
    28    22    23    2
    29     8     9    1
    30     7     2    1
    31    22    18   am
    32     9     2    1
    33    15    10   ar
    34    30    24   ar
@<TRIPOS>MOLECULE
*****
 30 34 0 0 0
SMALL
GASTEIGER

@<TRIPOS>ATOM
      1 C         140.9980  136.8822  164.1044 C.3     1  UNL1        0.0014
      2 C         140.1617  138.0830  164.4345 C.3     1  UNL1        0.0163
      3 C         140.3468  138.7884  165.7453 C.3     1  UNL1        0.0058
      4 C         139.5106  139.9891  166.0754 C.3     1  UNL1        0.0237
      5 C         138.4893  140.4843  165.0947 C.3     1  UNL1        0.0203
      6 C         138.3042  139.7789  163.7840 C.3     1  UNL1        0.0579
      7 C         139.1404  138.5782  163.4539 C.3     1  UNL1        0.0173
      8 N         138.5818  138.6938  162.6963 N.3     1  UNL1       -0.2725
      9 C         139.6543  137.7146  163.0719 C.3     1  UNL1        0.0721
     10 C         139.6956  140.6946  167.3861 C.ar    1  UNL1       -0.0225
     11 C         139.2138  140.0571  168.6556 C.ar    1  UNL1       -0.0043
     12 C         139.3988  140.7626  169.9663 C.ar    1  UNL1       -0.0003
     13 C         140.0657  142.1056  170.0077 C.ar    1  UNL1       -0.0000
     14 C         140.5475  142.7431  168.7382 C.ar    1  UNL1       -0.0003
     15 C         140.3625  142.0376  167.4274 C.ar    1  UNL1       -0.0043
     16 C         137.8017  138.6986  161.4151 C.3     1  UNL1        0.0939
     17 C         138.2895  139.4973  160.2430 C.3     1  UNL1        0.1123
     18 N         139.7013  139.3378  159.7621 N.am    1  UNL1       -0.2606
     19 C         140.9181  139.9640  160.3764 C.3     1  UNL1        0.1169
     20 C         142.1131  139.5373  159.5764 C.3     1  UNL1        0.1212
     21 N         141.6349  138.6475  158.4676 N.am    1  UNL1       -0.2413
     22 C         140.1444  138.5241  158.5823 C.2     1  UNL1        0.3111
     23 O         139.2532  137.7271  157.6765 O.2     1  UNL1       -0.2520
     24 C         142.4960  137.9954  157.4268 C.ar    1  UNL1        0.0562
     25 C         143.2740  138.8391  156.4610 C.ar    1  UNL1        0.0150
     26 C         144.1351  138.1871  155.4202 C.ar    1  UNL1        0.0021
     27 C         144.2181  136.6912  155.3453 C.ar    1  UNL1        0.0115
     28 C         143.4401  135.8475  156.3110 C.ar    1  UNL1        0.0589
     29 CL        143.5232  134.3516  156.2361 Cl      1  UNL1       -0.0822
     30 C         142.5790  136.4996  157.3518 C.ar    1  UNL1        0.0263
@<TRIPOS>BOND
     1     2     1    1
     2     2     3    1
     3     3     4    1
     4     4    10    1
     5    10    11   ar
     6    11    12   ar
     7    12    13   ar
     8    13    14   ar
     9    14    15   ar
    10     4     5    1
    11     6     5    1
    12     6     7    1
    13     6     8    1
    14     8    16    1
    15    16    17    1
    16    17    18    1
    17    18    19    1
    18    19    20    1
    19    20    21    1
    20    21    24    1
    21    24    25   ar
    22    25    26   ar
    23    26    27   ar
    24    27    28   ar
    25    28    29    1
    26    28    30   ar
    27    21    22   am
    28    22    23    2
    29     8     9    1
    30     7     2    1
    31    22    18   am
    32     9     2    1
    33    15    10   ar
    34    30    24   ar
@<TRIPOS>MOLECULE
*****
 30 34 0 0 0
SMALL
GASTEIGER

@<TRIPOS>ATOM
      1 C         143.2071  143.6467  163.3313 C.3     1  UNL1        0.0014
      2 C         142.2475  143.3771  164.4524 C.3     1  UNL1        0.0163
      3 C         142.7010  142.6116  165.6600 C.3     1  UNL1        0.0058
      4 C         141.7414  142.3420  166.7809 C.3     1  UNL1        0.0237
      5 C         140.3284  142.8379  166.6942 C.3     1  UNL1        0.0203
      6 C         139.8749  143.6033  165.4866 C.3     1  UNL1        0.0579
      7 C         140.8345  143.8729  164.3657 C.3     1  UNL1        0.0173
      8 N         140.0231  144.2761  164.0855 N.3     1  UNL1       -0.2725
      9 C         141.3929  144.1454  163.4883 C.3     1  UNL1        0.0721
     10 C         142.1949  141.5766  167.9886 C.ar    1  UNL1       -0.0225
     11 C         141.7860  140.1443  168.1659 C.ar    1  UNL1       -0.0043
     12 C         142.2394  139.3788  169.3735 C.ar    1  UNL1       -0.0003
     13 C         143.1018  140.0456  170.4040 C.ar    1  UNL1       -0.0000
     14 C         143.5106  141.4779  170.2268 C.ar    1  UNL1       -0.0003
     15 C         143.0572  142.2433  169.0190 C.ar    1  UNL1       -0.0043
     16 C         138.8511  144.9721  163.4594 C.3     1  UNL1        0.0939
     17 C         137.6455  144.1832  163.0424 C.3     1  UNL1        0.1123
     18 N         137.8153  142.8530  162.3703 N.am    1  UNL1       -0.2606
     19 C         137.3930  141.5247  162.9247 C.3     1  UNL1        0.1169
     20 C         137.7539  140.4683  161.9228 C.3     1  UNL1        0.1212
     21 N         138.3992  141.1437  160.7491 N.am    1  UNL1       -0.2413
     22 C         138.4371  142.6175  161.0257 C.2     1  UNL1        0.3111
     23 O         138.9983  143.6709  160.1172 O.2     1  UNL1       -0.2520
     24 C         138.9159  140.4645  159.5155 C.ar    1  UNL1        0.0562
     25 C         138.2021  140.6402  158.2080 C.ar    1  UNL1        0.0150
     26 C         138.7188  139.9610  156.9744 C.ar    1  UNL1        0.0021
     27 C         139.9492  139.1062  157.0484 C.ar    1  UNL1        0.0115
     28 C         140.6629  138.9306  158.3559 C.ar    1  UNL1        0.0589
     29 CL        141.8933  138.0758  158.4300 Cl      1  UNL1       -0.0822
     30 C         140.1462  139.6097  159.5895 C.ar    1  UNL1        0.0263
@<TRIPOS>BOND
     1     2     1    1
     2     2     3    1
     3     3     4    1
     4     4    10    1
     5    10    11   ar
     6    11    12   ar
     7    12    13   ar
     8    13    14   ar
     9    14    15   ar
    10     4     5    1
    11     6     5    1
    12     6     7    1
    13     6     8    1
    14     8    16    1
    15    16    17    1
    16    17    18    1
    17    18    19    1
    18    19    20    1
    19    20    21    1
    20    21    24    1
    21    24    25   ar
    22    25    26   ar
    23    26    27   ar
    24    27    28   ar
    25    28    29    1
    26    28    30   ar
    27    21    22   am
    28    22    23    2
    29     8     9    1
    30     7     2    1
    31    22    18   am
    32     9     2    1
    33    15    10   ar
    34    30    24   ar
@<TRIPOS>MOLECULE
*****
 30 34 0 0 0
SMALL
GASTEIGER

@<TRIPOS>ATOM
      1 C         142.5547  138.2530  164.5276 C.3     1  UNL1        0.0014
      2 C         141.2630  138.7677  165.0903 C.3     1  UNL1        0.0163
      3 C         141.2732  139.6647  166.2925 C.3     1  UNL1        0.0058
      4 C         139.9815  140.1794  166.8551 C.3     1  UNL1        0.0237
      5 C         138.6796  139.7972  166.2156 C.3     1  UNL1        0.0203
      6 C         138.6694  138.9002  165.0134 C.3     1  UNL1        0.0579
      7 C         139.9611  138.3855  164.4508 C.3     1  UNL1        0.0173
      8 N         139.2932  138.0147  163.8889 N.3     1  UNL1       -0.2725
      9 C         140.7906  137.9383  163.9333 C.3     1  UNL1        0.0721
     10 C         139.9916  141.0765  168.0573 C.ar    1  UNL1       -0.0225
     11 C         139.5133  140.5606  169.3821 C.ar    1  UNL1       -0.0043
     12 C         139.5234  141.4575  170.5843 C.ar    1  UNL1       -0.0003
     13 C         140.0119  142.8705  170.4618 C.ar    1  UNL1       -0.0000
     14 C         140.4902  143.3865  169.1370 C.ar    1  UNL1       -0.0003
     15 C         140.4801  142.4894  167.9348 C.ar    1  UNL1       -0.0043
     16 C         138.4048  137.3340  162.8902 C.3     1  UNL1        0.0939
     17 C         137.8622  138.1029  161.7222 C.3     1  UNL1        0.1123
     18 N         138.7023  139.1555  161.0617 N.am    1  UNL1       -0.2606
     19 C         139.6620  138.9360  159.9301 C.3     1  UNL1        0.1169
     20 C         140.2830  140.2573  159.5859 C.3     1  UNL1        0.1212
     21 N         139.7071  141.2935  160.5049 N.am    1  UNL1       -0.2413
     22 C         138.7301  140.6126  161.4170 C.2     1  UNL1        0.3111
     23 O         137.9227  141.2728  162.4951 O.2     1  UNL1       -0.2520
     24 C         140.0481  142.7542  160.5108 C.ar    1  UNL1        0.0562
     25 C         139.8723  143.5705  159.2647 C.ar    1  UNL1        0.0150
     26 C         140.2133  145.0312  159.2706 C.ar    1  UNL1        0.0021
     27 C         140.7303  145.6756  160.5226 C.ar    1  UNL1        0.0115
     28 C         140.9061  144.8593  161.7687 C.ar    1  UNL1        0.0589
     29 CL        141.4231  145.5037  163.0207 Cl      1  UNL1       -0.0822
     30 C         140.5651  143.3986  161.7628 C.ar    1  UNL1        0.0263
@<TRIPOS>BOND
     1     2     1    1
     2     2     3    1
     3     3     4    1
     4     4    10    1
     5    10    11   ar
     6    11    12   ar
     7    12    13   ar
     8    13    14   ar
     9    14    15   ar
    10     4     5    1
    11     6     5    1
    12     6     7    1
    13     6     8    1
    14     8    16    1
    15    16    17    1
    16    17    18    1
    17    18    19    1
    18    19    20    1
    19    20    21    1
    20    21    24    1
    21    24    25   ar
    22    25    26   ar
    23    26    27   ar
    24    27    28   ar
    25    28    29    1
    26    28    30   ar
    27    21    22   am
    28    22    23    2
    29     8     9    1
    30     7     2    1
    31    22    18   am
    32     9     2    1
    33    15    10   ar
    34    30    24   ar
@<TRIPOS>MOLECULE
*****
 30 34 0 0 0
SMALL
GASTEIGER

@<TRIPOS>ATOM
      1 C         143.9783  143.8451  164.1476 C.3     1  UNL1        0.0014
      2 C         142.5376  143.7708  164.5588 C.3     1  UNL1        0.0163
      3 C         142.1503  143.0289  165.8036 C.3     1  UNL1        0.0058
      4 C         140.7097  142.9546  166.2148 C.3     1  UNL1        0.0237
      5 C         139.6564  143.6223  165.3812 C.3     1  UNL1        0.0203
      6 C         140.0437  144.3642  164.1364 C.3     1  UNL1        0.0579
      7 C         141.4843  144.4385  163.7253 C.3     1  UNL1        0.0173
      8 N         141.0212  144.9250  163.0557 N.3     1  UNL1       -0.2725
      9 C         142.4611  144.5823  163.2996 C.3     1  UNL1        0.0721
     10 C         140.3223  142.2127  167.4596 C.ar    1  UNL1       -0.0225
     11 C         139.8687  140.7856  167.3716 C.ar    1  UNL1       -0.0043
     12 C         139.4813  140.0436  168.6163 C.ar    1  UNL1       -0.0003
     13 C         139.5475  140.7287  169.9491 C.ar    1  UNL1       -0.0000
     14 C         140.0011  142.1558  170.0371 C.ar    1  UNL1       -0.0003
     15 C         140.3885  142.8978  168.7923 C.ar    1  UNL1       -0.0043
     16 C         140.4882  145.7266  161.9054 C.3     1  UNL1        0.0939
     17 C         140.1963  145.0564  160.5957 C.3     1  UNL1        0.1123
     18 N         140.0825  143.5623  160.5266 N.am    1  UNL1       -0.2606
     19 C         138.8075  142.7728  160.5567 C.3     1  UNL1        0.1169
     20 C         139.1608  141.3179  160.4640 C.3     1  UNL1        0.1212
     21 N         140.6542  141.2083  160.3767 N.am    1  UNL1       -0.2413
     22 C         141.2239  142.5953  160.4154 C.2     1  UNL1        0.3111
     23 O         142.6794  142.9528  160.3537 O.2     1  UNL1       -0.2520
     24 C         141.4400  139.9351  160.2695 C.ar    1  UNL1        0.0562
     25 C         141.9746  139.2772  161.5071 C.ar    1  UNL1        0.0150
     26 C         142.7604  138.0041  161.3999 C.ar    1  UNL1        0.0021
     27 C         143.0116  137.3888  160.0551 C.ar    1  UNL1        0.0115
     28 C         142.4771  138.0466  158.8177 C.ar    1  UNL1        0.0589
     29 CL        142.7283  137.4313  157.4729 Cl      1  UNL1       -0.0822
     30 C         141.6912  139.3198  158.9248 C.ar    1  UNL1        0.0263
@<TRIPOS>BOND
     1     2     1    1
     2     2     3    1
     3     3     4    1
     4     4    10    1
     5    10    11   ar
     6    11    12   ar
     7    12    13   ar
     8    13    14   ar
     9    14    15   ar
    10     4     5    1
    11     6     5    1
    12     6     7    1
    13     6     8    1
    14     8    16    1
    15    16    17    1
    16    17    18    1
    17    18    19    1
    18    19    20    1
    19    20    21    1
    20    21    24    1
    21    24    25   ar
    22    25    26   ar
    23    26    27   ar
    24    27    28   ar
    25    28    29    1
    26    28    30   ar
    27    21    22   am
    28    22    23    2
    29     8     9    1
    30     7     2    1
    31    22    18   am
    32     9     2    1
    33    15    10   ar
    34    30    24   ar
